geometry optimzed in LAMMPS
_audit_creation_date              2020-12-01 
_audit_creation_method            'lammps2cif' 
_symmetry_space_group_name_H-M    'P1' 
_symmetry_Int_Tables_number       1 
_symmetry_cell_setting            triclinic 
loop_ 
_symmetry_equiv_pos_as_xyz 
  x,y,z 
_cell_length_a                    36.6133214 
_cell_length_b                    36.62495826062508 
_cell_length_c                    40.312318841846164 
_cell_angle_alpha                 90.12298096738776 
_cell_angle_beta                  89.7645588956877 
_cell_angle_gamma                 89.95517049057739 
loop_ 
_atom_site_label 
_atom_site_type_symbol 
_atom_site_fract_x 
_atom_site_fract_y 
_atom_site_fract_z 
_atom_site_charge 
O1          O  0.87347682  0.17290488  0.70817032    -0.85500
O2          O  0.81041238  0.16819989  0.74151365    -0.82600
C3          C  0.78731806  0.17396855  0.76344506     0.97900
O4          O  0.79343404  0.16050410  0.79198577    -0.82600
O5          O  0.82427615  0.08768453  0.78043122    -0.85200
C6          C  0.84809184  0.06507633  0.76998855     1.02500
O7          O  0.88165026  0.07319741  0.77162833    -0.78000
O8          O  0.88406260  0.11471793  0.71595606    -0.78200
C9          C  0.87863715  0.14110139  0.69681133     1.02400
O10         O  0.90418054  0.21055461  0.76353484    -0.85500
O11         O  0.84031755  0.21471834  0.79564946    -0.82600
C12         C  0.84788267  0.20725724  0.82567059     0.98000
O13         O  0.85351070  0.17451626  0.83419724    -0.82600
O14         O  0.88068035  0.10459234  0.83089556    -0.85200
C15         C  0.91492639  0.11129900  0.82918517     1.02400
O16         O  0.92794452  0.12578225  0.80346211    -0.71600
O17         O  0.93515733  0.16340517  0.74523692    -0.78200
C18         C  0.93308261  0.19705399  0.75224990     1.02400
Cr19       Cr  0.85730251  0.18878732  0.75357122     1.93700
Cr20       Cr  0.83943215  0.13210522  0.80687215     1.93200
Cr21       Cr  0.90466834  0.12110955  0.76022847     1.39100
O22         O  0.86768323  0.14768388  0.77390620    -1.23300
O23         O  0.61276377  0.37311557  0.78656187    -0.85500
O24         O  0.61477422  0.40974980  0.72766398    -0.82600
C25         C  0.64833401  0.41807354  0.72662026     0.97900
O26         O  0.67194563  0.39399662  0.71914626    -0.82600
O27         O  0.70201301  0.32061599  0.71130485    -0.85200
C28         C  0.70886403  0.30869768  0.74024832     1.02500
O29         O  0.68674345  0.31637444  0.76258017    -0.78000
O30         O  0.62403900  0.31552253  0.79729149    -0.78200
C31         C  0.61886905  0.34800725  0.80701846     1.02400
O32         O  0.56105116  0.32217933  0.76042065    -0.85500
O33         O  0.56773689  0.35491693  0.70018457    -0.82600
C34         C  0.57987989  0.36843237  0.67374022     0.98000
O35         O  0.61420087  0.37432361  0.67089491    -0.82600
O36         O  0.64115372  0.30367450  0.67143100    -0.85200
C37         C  0.64742195  0.27170554  0.68184993     1.02400
O38         O  0.65472274  0.26631616  0.71230237    -0.78000
O39         O  0.59204740  0.27367495  0.74518056    -0.78200
C40         C  0.56278563  0.28834717  0.75419530     1.02400
Cr41       Cr  0.59172518  0.36304436  0.74272484     1.93700
Cr42       Cr  0.65585024  0.34803009  0.69582302     1.93200
Cr43       Cr  0.63913052  0.29572334  0.75294083     1.39100
O44         O  0.62843618  0.33525013  0.73028572    -1.23300
O45         O  0.62890022  0.35941288  0.96737493    -0.85500
O46         O  0.66768614  0.36026327  0.02479232    -0.82600
C47         C  0.67517355  0.39397403  0.02611182     0.97900
O48         O  0.65115401  0.41682852  0.03539657    -0.82600
O49         O  0.57787493  0.44558983  0.04600124    -0.85200
C50         C  0.56533295  0.45305303  0.01744692     1.02500
O51         O  0.57265988  0.43154408  0.99452713    -0.78000
O52         O  0.57081550  0.36966679  0.95845391    -0.78200
C53         C  0.60303946  0.36521476  0.94769644     1.02400
O54         O  0.57960643  0.30590384  0.99392619    -0.85500
O55         O  0.61474298  0.31153152  0.05301157    -0.82600
C56         C  0.62764335  0.32350709  0.07975018     0.98000
O57         O  0.63388206  0.35767449  0.08284975    -0.82600
O58         O  0.56329702  0.38321953  0.08486605    -0.85200
C59         C  0.53096856  0.38962725  0.07563384     1.02400
O60         O  0.52455726  0.39796994  0.04557688    -0.78000
O61         O  0.53158756  0.33606220  0.01158092    -0.78200
C62         C  0.54601597  0.30710714  0.00145648     1.02400
Cr63       Cr  0.62082225  0.33682461  0.01086692     1.93700
Cr64       Cr  0.60641632  0.39943181  0.05963831     1.93200
Cr65       Cr  0.55265374  0.38356149  0.00379647     1.39100
O66         O  0.59298573  0.37275197  0.02500535    -1.23300
O67         O  0.42859500  0.61983056  0.04498467    -0.85500
O68         O  0.42598886  0.55510389  0.01385976    -0.82600
C69         C  0.43142369  0.53144675  0.99228261     0.97900
O70         O  0.41820110  0.53693803  0.96355267    -0.82600
O71         O  0.34545129  0.56837595  0.97157465    -0.85200
C72         C  0.32256893  0.59249226  0.98081032     1.02500
O73         O  0.33097986  0.62590582  0.97894862    -0.78000
O74         O  0.37032195  0.62937208  0.03622059    -0.78200
C75         C  0.39650054  0.62462796  0.05583032     1.02400
O76         O  0.46754873  0.64873435  0.98953723    -0.85500
O77         O  0.47365454  0.58341156  0.96036336    -0.82600
C78         C  0.46746112  0.58901448  0.92980966     0.98000
O79         O  0.43518152  0.59497243  0.91998835    -0.82600
O80         O  0.36508102  0.62331992  0.92045536    -0.85200
C81         C  0.37105197  0.65770139  0.92195735     1.02400
O82         O  0.38455563  0.67130582  0.94783608    -0.78000
O83         O  0.41994932  0.67967689  0.00687013    -0.78200
C84         C  0.45357687  0.67784610  0.99981644     1.02400
Cr85       Cr  0.44608316  0.60202520  0.00075754     1.93700
Cr86       Cr  0.39118296  0.58253087  0.94638815     1.93200
Cr87       Cr  0.37836337  0.64886868  0.99142595     1.39100
O88         O  0.40549423  0.61151475  0.97920924    -1.23300
O89         O  0.10912636  0.86842590  0.28319513    -0.85500
O90         O  0.11112353  0.90647740  0.22487078    -0.82600
C91         C  0.14439695  0.91502312  0.22789049     0.97900
O92         O  0.16874516  0.89253882  0.21830321    -0.82600
O93         O  0.20019750  0.81971293  0.20872871    -0.85200
C94         C  0.20648269  0.80675607  0.23739576     1.02500
O95         O  0.18353325  0.81276807  0.25946170    -0.78000
O96         O  0.12051487  0.81060784  0.29299599    -0.78200
C97         C  0.11543146  0.84292592  0.30315298     1.02400
O98         O  0.05827269  0.81810066  0.25589386    -0.85500
O99         O  0.06556103  0.85166931  0.19609574    -0.82600
C100        C  0.07866912  0.86344336  0.16930067     0.98000
O101        O  0.11237802  0.87251700  0.16797279    -0.82600
O102        O  0.14055106  0.80317521  0.16720015    -0.85200
C103        C  0.14593671  0.77077027  0.17688141     1.02400
O104        O  0.15296826  0.76438846  0.20721339    -0.78000
O105        O  0.08924760  0.77040677  0.23894886    -0.78200
C106        C  0.05987434  0.78463856  0.24834648     1.02400
Cr107      Cr  0.08861274  0.85943935  0.23905202     1.93700
Cr108      Cr  0.15403485  0.84691689  0.19308685     1.93200
Cr109      Cr  0.13629088  0.79226901  0.24829444     1.39100
O110        O  0.12591649  0.83248647  0.22657792    -1.23300
O111        O  0.37557184  0.67504141  0.20774888    -0.85500
O112        O  0.31204810  0.66934879  0.24057505    -0.82600
C113        C  0.28883327  0.67489847  0.26249331     0.97900
O114        O  0.29504261  0.66169034  0.29113994    -0.82600
O115        O  0.32665847  0.58910267  0.28063883    -0.85200
C116        C  0.35061103  0.56660976  0.27020590     1.02500
O117        O  0.38409222  0.57526904  0.27086035    -0.78000
O118        O  0.38622625  0.61688164  0.21534356    -0.78200
C119        C  0.38061273  0.64328385  0.19626136     1.02400
O120        O  0.40481273  0.71276648  0.26380404    -0.85500
O121        O  0.34067913  0.71655471  0.29468756    -0.82600
C122        C  0.34857928  0.70978211  0.32475140     0.98000
O123        O  0.35485709  0.67722151  0.33362645    -0.82600
O124        O  0.38279972  0.60699175  0.33052495    -0.85200
C125        C  0.41705674  0.61342925  0.32845641     1.02400
O126        O  0.42975999  0.62833957  0.30287550    -0.78000
O127        O  0.43673850  0.66637574  0.24528565    -0.78200
C128        C  0.43433529  0.69966520  0.25356180     1.02400
Cr129      Cr  0.35853406  0.69058157  0.25298151     1.93700
Cr130      Cr  0.34130629  0.63409512  0.30652122     1.93200
Cr131      Cr  0.40660473  0.62351938  0.25970497     1.39100
O132        O  0.36928046  0.64963816  0.27338324    -1.23300
O133        O  0.92667688  0.12007672  0.54538438    -0.85500
O134        O  0.92726029  0.05556897  0.51341060    -0.82600
C135        C  0.93263936  0.03246758  0.49129199     0.97900
O136        O  0.91912263  0.03837964  0.46275465    -0.82600
O137        O  0.84588855  0.06753568  0.47124164    -0.85200
C138        C  0.82167284  0.09090795  0.47892726     1.02500
O139        O  0.82940634  0.12455204  0.47875999    -0.78000
O140        O  0.86806515  0.12769155  0.53655721    -0.78200
C141        C  0.89433991  0.12386964  0.55620683     1.02400
O142        O  0.96457006  0.15096309  0.48978936    -0.85500
O143        O  0.97360736  0.08639594  0.46006689    -0.82600
C144        C  0.96707197  0.09248227  0.42959068     0.98000
O145        O  0.93457468  0.09782475  0.42019861    -0.82600
O146        O  0.86403193  0.12415532  0.42106827    -0.85200
C147        C  0.86997662  0.15848565  0.42324249     1.02400
O148        O  0.88291289  0.17148399  0.44952027    -0.78000
O149        O  0.91667691  0.18031558  0.50856008    -0.78200
C150        C  0.94993307  0.17972914  0.50008207     1.02400
Cr151      Cr  0.94522932  0.10347416  0.50088462     1.93700
Cr152      Cr  0.89105115  0.08346957  0.44636113     1.93200
Cr153      Cr  0.87615571  0.14834544  0.49234326     1.39100
O154        O  0.90432220  0.11193840  0.47971611    -1.23300
O155        O  0.12456115  0.85224641  0.46306956    -0.85500
O156        O  0.16486322  0.85456529  0.51954845    -0.82600
C157        C  0.17281553  0.88819179  0.51889818     0.97900
O158        O  0.14987455  0.91166804  0.52917952    -0.82600
O159        O  0.07746633  0.94191141  0.53906960    -0.85200
C160        C  0.06409577  0.94849717  0.51062704     1.02500
O161        O  0.06892735  0.92548052  0.48831337    -0.78000
O162        O  0.06619856  0.86141015  0.45544476    -0.78200
C163        C  0.09816406  0.85769914  0.44387850     1.02400
O164        O  0.07540065  0.80016604  0.49231441    -0.85500
O165        O  0.11245806  0.80765325  0.55061239    -0.82600
C166        C  0.12624568  0.82081981  0.57653855     0.98000
O167        O  0.13213039  0.85510102  0.57863178    -0.82600
O168        O  0.06172327  0.88202253  0.58096963    -0.85200
C169        C  0.02930687  0.88843554  0.57189221     1.02400
O170        O  0.02255051  0.89536784  0.54165870    -0.78000
O171        O  0.02833990  0.83094931  0.51099364    -0.78200
C172        C  0.04191818  0.80186136  0.50027017     1.02400
Cr173      Cr  0.11742626  0.83124410  0.50746800     1.93700
Cr174      Cr  0.10499593  0.89609478  0.55444241     1.93200
Cr175      Cr  0.04940004  0.87798885  0.50040873     1.39100
O176        O  0.09039006  0.86808031  0.52104429    -1.23300
O177        O  0.12045828  0.31224132  0.70464820    -0.85500
O178        O  0.18275060  0.31194050  0.73933786    -0.82600
C179        C  0.20461036  0.30627381  0.76223770     0.97900
O180        O  0.19711690  0.31957189  0.79063848    -0.82600
O181        O  0.16871721  0.39297156  0.78060850    -0.85200
C182        C  0.14583962  0.41726994  0.77220723     1.02500
O183        O  0.11212022  0.40973525  0.77128265    -0.78000
O184        O  0.11189962  0.37073547  0.71364922    -0.78200
C185        C  0.11757263  0.34461487  0.69403170     1.02400
O186        O  0.08619128  0.27427709  0.75827496    -0.85500
O187        O  0.14869915  0.26587706  0.79114918    -0.82600
C188        C  0.14082301  0.27277325  0.82128131     0.98000
O189        O  0.13506552  0.30531079  0.83043885    -0.82600
O190        O  0.10966025  0.37565722  0.82858147    -0.85200
C191        C  0.07548656  0.36931310  0.82579833     1.02400
O192        O  0.06332503  0.35662734  0.79905228    -0.78000
O193        O  0.05739588  0.32221237  0.73928862    -0.78200
C194        C  0.05797024  0.28869162  0.74683416     1.02400
Cr195      Cr  0.13421357  0.29386719  0.74966094     1.93700
Cr196      Cr  0.15128163  0.34821966  0.80494749     1.93200
Cr197      Cr  0.08869267  0.36290988  0.75688773     1.39100
O198        O  0.12441102  0.33475297  0.77067185    -1.23300
O199        O  0.38368709  0.11672819  0.78989443    -0.85500
O200        O  0.38279475  0.07342588  0.73475610    -0.82600
C201        C  0.34912479  0.06592851  0.73556722     0.97900
O202        O  0.32615534  0.08896061  0.72465528    -0.82600
O203        O  0.29747718  0.16195139  0.71390465    -0.85200
C204        C  0.29126348  0.17667612  0.74206894     1.02500
O205        O  0.31480144  0.17375116  0.76410599    -0.78000
O206        O  0.37987121  0.17603420  0.79516604    -0.78200
C207        C  0.38112201  0.14459769  0.80795757     1.02400
O208        O  0.43875372  0.16250979  0.75992911    -0.85500
O209        O  0.43148627  0.12277220  0.70301451    -0.82600
C210        C  0.41812894  0.10933028  0.67701339     0.98000
O211        O  0.38361445  0.10469923  0.67459550    -0.82600
O212        O  0.35746356  0.17531929  0.67033691    -0.85200
C213        C  0.35183685  0.20824349  0.67858367     1.02400
O214        O  0.34483390  0.21603710  0.70861288    -0.78000
O215        O  0.41035763  0.20867186  0.73726049    -0.78200
C216        C  0.43857191  0.19520963  0.74975244     1.02400
Cr217      Cr  0.40664154  0.12073538  0.74582718     1.93700
Cr218      Cr  0.34268745  0.13306774  0.69826876     1.93200
Cr219      Cr  0.36270750  0.19065179  0.75003585     1.39100
O220        O  0.37095347  0.14826467  0.73098856    -1.23300
O221        O  0.86621810  0.62523966  0.46498953    -0.85500
O222        O  0.82872999  0.62288190  0.52366404    -0.82600
C223        C  0.82083182  0.58924529  0.52368237     0.97900
O224        O  0.84488983  0.56584831  0.53154346    -0.82600
O225        O  0.91816722  0.53584024  0.53915027    -0.85200
C226        C  0.93108618  0.52920354  0.51041633     1.02500
O227        O  0.92471405  0.55159532  0.48806266    -0.78000
O228        O  0.92425383  0.61502785  0.45455829    -0.78200
C229        C  0.89180454  0.61986497  0.44469420     1.02400
O230        O  0.91644643  0.67738920  0.49149389    -0.85500
O231        O  0.88354787  0.66971521  0.55151536    -0.82600
C232        C  0.87205305  0.65708267  0.57855159     0.98000
O233        O  0.86453959  0.62308234  0.58070674    -0.82600
O234        O  0.93490304  0.59585648  0.58030908    -0.85200
C235        C  0.96710198  0.59023238  0.56992422     1.02400
O236        O  0.97296450  0.58387375  0.53929944    -0.78000
O237        O  0.96457447  0.64708320  0.50795032    -0.78200
C238        C  0.95016983  0.67605728  0.49818703     1.02400
Cr239      Cr  0.87564469  0.64610341  0.50894393     1.93700
Cr240      Cr  0.89067340  0.58166628  0.55527375     1.93200
Cr241      Cr  0.94379663  0.59966148  0.49883805     1.39100
O242        O  0.90363007  0.60942056  0.52117359    -1.23300
O243        O  0.06924684  0.36522878  0.54419206    -0.85500
O244        O  0.07223364  0.42828673  0.51054380    -0.82600
C245        C  0.06593579  0.45081937  0.48832082     0.97900
O246        O  0.07870079  0.44405495  0.45959845    -0.82600
O247        O  0.15100591  0.41207588  0.46892101    -0.85200
C248        C  0.17338569  0.38784847  0.47871119     1.02500
O249        O  0.16487089  0.35448945  0.47617180    -0.78000
O250        O  0.12674016  0.35264883  0.53393866    -0.78200
C251        C  0.10150037  0.35975939  0.55409294     1.02400
O252        O  0.02802733  0.33454645  0.49094775    -0.85500
O253        O  0.02310825  0.39781882  0.45932660    -0.82600
C254        C  0.02887143  0.39095222  0.42883508     0.98000
O255        O  0.06099808  0.38463382  0.41836201    -0.82600
O256        O  0.13132868  0.35589971  0.41895736    -0.85200
C257        C  0.12496618  0.32166003  0.42096645     1.02400
O258        O  0.11030033  0.30892519  0.44670661    -0.78000
O259        O  0.07548756  0.30256325  0.50646803    -0.78200
C260        C  0.04185348  0.30491874  0.49984672     1.02400
Cr261      Cr  0.05094938  0.38111617  0.49986620     1.93700
Cr262      Cr  0.10534648  0.39760134  0.44392999     1.93200
Cr263      Cr  0.11741634  0.33227637  0.48982716     1.39100
O264        O  0.09078276  0.36982358  0.47754850    -1.23300
O265        O  0.56698209  0.86672814  0.04687870    -0.85500
O266        O  0.56939501  0.92840211  0.01124381    -0.82600
C267        C  0.56288578  0.95006715  0.98841670     0.97900
O268        O  0.57662714  0.94293773  0.96013893    -0.82600
O269        O  0.65004876  0.91360609  0.97205294    -0.85200
C270        C  0.67294709  0.89025198  0.98268587     1.02500
O271        O  0.66516150  0.85663328  0.98137194    -0.78000
O272        O  0.62504338  0.85570914  0.03817924    -0.78200
C273        C  0.59905683  0.86208050  0.05771316     1.02400
O274        O  0.52890988  0.83292244  0.99312060    -0.85500
O275        O  0.52269674  0.89502306  0.95908264    -0.82600
C276        C  0.52991465  0.88599600  0.92922304     0.98000
O277        O  0.56271898  0.88091293  0.92026766    -0.82600
O278        O  0.63317996  0.85529171  0.92338783    -0.85200
C279        C  0.62640835  0.82119184  0.92576893     1.02400
O280        O  0.61249320  0.80880600  0.95198995    -0.78000
O281        O  0.57661723  0.80293342  0.01112312    -0.78200
C282        C  0.54313633  0.80419729  0.00374426     1.02400
Cr283      Cr  0.54975935  0.88051444  0.00130049     1.93700
Cr284      Cr  0.60543438  0.89686908  0.94653421     1.93200
Cr285      Cr  0.61794017  0.83355759  0.99453887     1.39100
O286        O  0.59069785  0.86983625  0.98056173    -1.23300
O287        O  0.37181675  0.13138096  0.96685570    -0.85500
O288        O  0.33101533  0.12872272  0.02359818    -0.82600
C289        C  0.32275907  0.09557087  0.01941617     0.97900
O290        O  0.34520812  0.07116857  0.02858969    -0.82600
O291        O  0.41733177  0.04010568  0.03772587    -0.85200
C292        C  0.43178230  0.03499857  0.00930716     1.02500
O293        O  0.42854006  0.05942256  0.98809915    -0.78000
O294        O  0.43078896  0.12560290  0.95887404    -0.78200
C295        C  0.39873444  0.12866873  0.94767511     1.02400
O296        O  0.42022783  0.18338314  0.99684530    -0.85500
O297        O  0.38348093  0.17400656  0.05513330    -0.82600
C298        C  0.36952258  0.15991637  0.08063572     0.98000
O299        O  0.36323404  0.12555203  0.08150135    -0.82600
O300        O  0.43294679  0.09727905  0.08307597    -0.85200
C301        C  0.46573473  0.09236422  0.07390795     1.02400
O302        O  0.47307293  0.08677844  0.04348982    -0.78000
O303        O  0.46713171  0.15323061  0.01619207    -0.78200
C304        C  0.45338866  0.18221450  0.00550812     1.02400
Cr305      Cr  0.37843386  0.15183469  0.01147136     1.93700
Cr306      Cr  0.38995300  0.08510618  0.05539884     1.93200
Cr307      Cr  0.44702277  0.10642680  0.00300879     1.39100
O308        O  0.40548063  0.11475587  0.02370905    -1.23300
O309        O  0.88096112  0.61325755  0.28529435    -0.85500
O310        O  0.87893060  0.57208216  0.22917806    -0.82600
C311        C  0.84524778  0.56447713  0.23010875     0.97900
O312        O  0.82203653  0.58775042  0.21994475    -0.82600
O313        O  0.79304498  0.66164793  0.20909351    -0.85200
C314        C  0.78655314  0.67572276  0.23746973     1.02500
O315        O  0.80913945  0.67032149  0.25983086    -0.78000
O316        O  0.87239037  0.67178089  0.29333600    -0.78200
C317        C  0.87591807  0.63971721  0.30460094     1.02400
O318        O  0.93418426  0.66068351  0.25668138    -0.85500
O319        O  0.92646434  0.62427260  0.19854112    -0.82600
C320        C  0.91406278  0.61083582  0.17220750     0.98000
O321        O  0.87986701  0.60405067  0.17010433    -0.82600
O322        O  0.85417560  0.67452253  0.16730957    -0.85200
C323        C  0.84920387  0.70736647  0.17593009     1.02400
O324        O  0.84159050  0.71500905  0.20598855    -0.78000
O325        O  0.90484805  0.70809964  0.23743685    -0.78200
C326        C  0.93358810  0.69378778  0.24789436     1.02400
Cr327      Cr  0.90256557  0.61941226  0.24132766     1.93700
Cr328      Cr  0.83862871  0.63222152  0.19417976     1.93200
Cr329      Cr  0.85720748  0.68843262  0.24789145     1.39100
O330        O  0.86639388  0.64687496  0.22762290    -1.23300
O331        O  0.61856721  0.81691232  0.20886180    -0.85500
O332        O  0.68245899  0.81506237  0.24144369    -0.82600
C333        C  0.70493435  0.80819985  0.26359280     0.97900
O334        O  0.69876655  0.82114841  0.29241110    -0.82600
O335        O  0.67177844  0.89529134  0.28426333    -0.85200
C336        C  0.64944668  0.92007685  0.27581544     1.02500
O337        O  0.61544462  0.91390230  0.27595677    -0.78000
O338        O  0.61086050  0.87538886  0.21827037    -0.78200
C339        C  0.61527657  0.84929894  0.19839526     1.02400
O340        O  0.58609813  0.77922085  0.26348369    -0.85500
O341        O  0.64941108  0.76897869  0.29387738    -0.82600
C342        C  0.64314919  0.77534643  0.32441320     0.98000
O343        O  0.63799653  0.80775238  0.33429247    -0.82600
O344        O  0.61449780  0.87927513  0.33378510    -0.85200
C345        C  0.57993622  0.87522959  0.33176331     1.02400
O346        O  0.56600051  0.86283621  0.30564432    -0.78000
O347        O  0.55685545  0.82787248  0.24648259    -0.78200
C348        C  0.55750421  0.79422515  0.25357039     1.02400
Cr349      Cr  0.63389534  0.79793488  0.25326414     1.93700
Cr350      Cr  0.65420263  0.85078742  0.30864485     1.93200
Cr351      Cr  0.58988997  0.86790188  0.26260067     1.39100
O352        O  0.62561170  0.83868869  0.27504391    -1.23300
O353        O  0.92260596  0.86583339  0.95220215    -0.85500
O354        O  0.92500980  0.92736652  0.98816059    -0.82600
C355        C  0.93244322  0.94852520  0.01126424     0.97900
O356        O  0.92052261  0.94053771  0.04001480    -0.82600
O357        O  0.84633411  0.91311177  0.03216187    -0.85200
C358        C  0.82153691  0.89043657  0.02444432     1.02500
O359        O  0.82888240  0.85666111  0.02274543    -0.78000
O360        O  0.86472462  0.85596037  0.96349994    -0.78200
C361        C  0.88976267  0.86248448  0.94296994     1.02400
O362        O  0.96334100  0.83040183  0.00320630    -0.85500
O363        O  0.97371299  0.89194378  0.03739551    -0.82600
C364        C  0.96815273  0.88233600  0.06733618     0.98000
O365        O  0.93592788  0.87720910  0.07772168    -0.82600
O366        O  0.86501754  0.85335867  0.07840916    -0.85200
C367        C  0.87081162  0.81914283  0.07511420     1.02400
O368        O  0.88272017  0.80697998  0.04794807    -0.78000
O369        O  0.91446812  0.80133002  0.98668661    -0.78200
C370        C  0.94834107  0.80195066  0.99278305     1.02400
Cr371      Cr  0.94343355  0.87856179  0.99661661     1.93700
Cr372      Cr  0.89201740  0.89479755  0.05445023     1.93200
Cr373      Cr  0.87472640  0.83275743  0.00623265     1.39100
O374        O  0.90361545  0.86837001  0.01917035    -1.23300
O375        O  0.12818764  0.12575494  0.03509404    -0.85500
O376        O  0.16513563  0.12659653  0.97598420    -0.82600
C377        C  0.17431727  0.09332827  0.97424406     0.97900
O378        O  0.15046856  0.06940369  0.96711356    -0.82600
O379        O  0.07691511  0.03920592  0.95893157    -0.85200
C380        C  0.06387669  0.03192532  0.98744727     1.02500
O381        O  0.06981014  0.05393226  0.01027393    -0.78000
O382        O  0.07007415  0.11611231  0.04542310    -0.78200
C383        C  0.10265146  0.11996094  0.05536213     1.02400
O384        O  0.07789695  0.17904858  0.01114997    -0.85500
O385        O  0.11026810  0.17379791  0.95021038    -0.82600
C386        C  0.12304642  0.16195652  0.92326632     0.98000
O387        O  0.12977810  0.12787451  0.92000608    -0.82600
O388        O  0.05998150  0.10043723  0.91952128    -0.85200
C389        C  0.02773634  0.09405009  0.92924235     1.02400
O390        O  0.02153763  0.08711006  0.95969207    -0.78000
O391        O  0.02981739  0.15001111  0.99290843    -0.78200
C392        C  0.04423378  0.17830792  0.00433996     1.02400
Cr393      Cr  0.11845787  0.14867203  0.99207277     1.93700
Cr394      Cr  0.10411149  0.08561422  0.94411997     1.93200
Cr395      Cr  0.05053208  0.10211822  0.00068107     1.39100
O396        O  0.09075853  0.11239088  0.97878317    -1.23300
O397        O  0.11209236  0.11025425  0.21602515    -0.85500
O398        O  0.11373160  0.07239198  0.27413917    -0.82600
C399        C  0.14711119  0.06330594  0.27437842     0.97900
O400        O  0.17127015  0.08687160  0.28156108    -0.82600
O401        O  0.20224055  0.15983312  0.28983803    -0.85200
C402        C  0.20868007  0.17255735  0.26104332     1.02500
O403        O  0.18593122  0.16621876  0.23905926    -0.78000
O404        O  0.12259951  0.16812553  0.20608604    -0.78200
C405        C  0.11801834  0.13574302  0.19589583     1.02400
O406        O  0.06058672  0.16110893  0.24342731    -0.85500
O407        O  0.06748151  0.12660116  0.30324297    -0.82600
C408        C  0.08028135  0.11289082  0.32933559     0.98000
O409        O  0.11460991  0.10670616  0.33136773    -0.82600
O410        O  0.14241521  0.17680160  0.33176329    -0.85200
C411        C  0.14812699  0.20901838  0.32168300     1.02400
O412        O  0.15531210  0.21488809  0.29124945    -0.78000
O413        O  0.09179476  0.20851462  0.26027465    -0.78200
C414        C  0.06252342  0.19475259  0.25045984     1.02400
Cr415      Cr  0.09110788  0.11951536  0.26016035     1.93700
Cr416      Cr  0.15614817  0.13275356  0.30605012     1.93200
Cr417      Cr  0.13861479  0.18666024  0.25053493     1.39100
O418        O  0.12819748  0.14663203  0.27253617    -1.23300
O419        O  0.37274531  0.31394768  0.29813492    -0.85500
O420        O  0.31099172  0.31391360  0.26283314    -0.82600
C421        C  0.28931342  0.30664462  0.24021861     0.97900
O422        O  0.29653698  0.31930482  0.21159364    -0.82600
O423        O  0.32627962  0.39283582  0.22093850    -0.85200
C424        C  0.34973680  0.41697445  0.22850879     1.02500
O425        O  0.38331915  0.40874574  0.22915526    -0.78000
O426        O  0.38354736  0.37176359  0.28755337    -0.78200
C427        C  0.37720249  0.34655872  0.30782123     1.02400
O428        O  0.40670302  0.27278147  0.24610646    -0.85500
O429        O  0.34466820  0.26500274  0.21229598    -0.82600
C430        C  0.35175074  0.27114557  0.18184267     0.98000
O431        O  0.35811770  0.30333292  0.17206316    -0.82600
O432        O  0.38473636  0.37382337  0.17301872    -0.85200
C433        C  0.41893145  0.36759447  0.17595680     1.02400
O434        O  0.43077339  0.35370676  0.20225914    -0.78000
O435        O  0.43639310  0.32123773  0.26289681    -0.78200
C436        C  0.43519111  0.28736382  0.25684534     1.02400
Cr437      Cr  0.35906453  0.29409317  0.25346997     1.93700
Cr438      Cr  0.34281538  0.34719368  0.19702965     1.93200
Cr439      Cr  0.40597676  0.36188321  0.24440063     1.39100
O440        O  0.36972288  0.33399793  0.23141540    -1.23300
O441        O  0.62446710  0.63098735  0.53747576    -0.85500
O442        O  0.66523828  0.62755711  0.48111492    -0.82600
C443        C  0.67239716  0.59371391  0.48112817     0.97900
O444        O  0.64865238  0.57097798  0.47116670    -0.82600
O445        O  0.57534192  0.54201854  0.46258042    -0.85200
C446        C  0.56186858  0.53611107  0.49125777     1.02500
O447        O  0.56770385  0.55913262  0.51326407    -0.78000
O448        O  0.56588035  0.62312636  0.54574873    -0.78200
C449        C  0.59792036  0.62675228  0.55684370     1.02400
O450        O  0.57659474  0.68388668  0.50877167    -0.85500
O451        O  0.61348119  0.67583806  0.45039741    -0.82600
C452        C  0.62611472  0.66243847  0.42402654     0.98000
O453        O  0.63126493  0.62799472  0.42169518    -0.82600
O454        O  0.56057958  0.60196039  0.42028540    -0.85200
C455        C  0.52811456  0.59589012  0.42965410     1.02400
O456        O  0.52140878  0.58952169  0.46005072    -0.78000
O457        O  0.52904714  0.65408987  0.49019875    -0.78200
C458        C  0.54308659  0.68280107  0.50111675     1.02400
Cr459      Cr  0.61798623  0.65195044  0.49329955     1.93700
Cr460      Cr  0.60377980  0.58732980  0.44646173     1.93200
Cr461      Cr  0.54889581  0.60673096  0.50095930     1.39100
O462        O  0.59003636  0.61573304  0.47994353    -1.23300
O463        O  0.42655739  0.36803953  0.45794872    -0.85500
O464        O  0.42417363  0.43054275  0.49243604    -0.82600
C465        C  0.43003980  0.45291660  0.51494163     0.97900
O466        O  0.41722438  0.44574574  0.54360889    -0.82600
O467        O  0.34419290  0.41467203  0.53474900    -0.85200
C468        C  0.32066263  0.39070708  0.52685054     1.02500
O469        O  0.32985137  0.35745331  0.52555410    -0.78000
O470        O  0.36832998  0.35886717  0.46744940    -0.78200
C471        C  0.39417936  0.36458888  0.44752983     1.02400
O472        O  0.46630614  0.33588210  0.51127644    -0.85500
O473        O  0.47279649  0.39905746  0.54388060    -0.82600
C474        C  0.46670846  0.39096671  0.57409228     0.98000
O475        O  0.43435462  0.38471391  0.58376301    -0.82600
O476        O  0.36446160  0.35643371  0.58256056    -0.85200
C477        C  0.37100430  0.32226267  0.57921714     1.02400
O478        O  0.38429214  0.31055952  0.55243355    -0.78000
O479        O  0.41867633  0.30596216  0.49282093    -0.78200
C480        C  0.45195896  0.30701525  0.50100809     1.02400
Cr481      Cr  0.44472783  0.38309601  0.50273256     1.93700
Cr482      Cr  0.39026062  0.39904635  0.55860285     1.93200
Cr483      Cr  0.37717642  0.33583499  0.51055080     1.39100
O484        O  0.40439771  0.37223187  0.52429766    -1.23300
O485        O  0.87081392  0.81417267  0.79332519    -0.85500
O486        O  0.80883854  0.81473411  0.75868030    -0.82600
C487        C  0.78689983  0.80747089  0.73630012     0.97900
O488        O  0.79420075  0.81928537  0.70738284    -0.82600
O489        O  0.82312816  0.89301691  0.71630695    -0.85200
C490        C  0.84636584  0.91725418  0.72420530     1.02500
O491        O  0.88002065  0.90938029  0.72485537    -0.78000
O492        O  0.88049211  0.87216217  0.78319340    -0.78200
C493        C  0.87408959  0.84677902  0.80329630     1.02400
O494        O  0.90421745  0.77359825  0.74099354    -0.85500
O495        O  0.84193644  0.76558152  0.70774776    -0.82600
C496        C  0.85139121  0.77139918  0.67779567     0.98000
O497        O  0.85642207  0.80374827  0.66782831    -0.82600
O498        O  0.88163136  0.87446167  0.66830627    -0.85200
C499        C  0.91592530  0.86878403  0.67113816     1.02400
O500        O  0.92828831  0.85560512  0.69759900    -0.78000
O501        O  0.93397840  0.82214158  0.75779471    -0.78200
C502        C  0.93277350  0.78831538  0.75138819     1.02400
Cr503      Cr  0.85669963  0.79471466  0.74880935     1.93700
Cr504      Cr  0.84013715  0.84749057  0.69246813     1.93200
Cr505      Cr  0.90320545  0.86283197  0.73987091     1.39100
O506        O  0.86721143  0.83466992  0.72678330    -1.23300
O507        O  0.60770401  0.61534475  0.71652675    -0.85500
O508        O  0.61203718  0.57408300  0.77222979    -0.82600
C509        C  0.64568909  0.56652993  0.76990363     0.97900
O510        O  0.66926300  0.58954602  0.77974820    -0.82600
O511        O  0.69870902  0.66260477  0.79003501    -0.85200
C512        C  0.70434419  0.67612628  0.76137874     1.02500
O513        O  0.68064615  0.67130910  0.73987547    -0.78000
O514        O  0.61617613  0.67389386  0.70881192    -0.78200
C515        C  0.61209420  0.64196329  0.69741724     1.02400
O516        O  0.55611033  0.66299718  0.74705547    -0.85500
O517        O  0.56542824  0.62578220  0.80493826    -0.82600
C518        C  0.57901623  0.61044902  0.82984698     0.98000
O519        O  0.61352464  0.60524497  0.83119206    -0.82600
O520        O  0.63945335  0.67624881  0.83391378    -0.85200
C521        C  0.64485427  0.70897495  0.82513325     1.02400
O522        O  0.65124881  0.71637984  0.79486628    -0.78000
O523        O  0.58622692  0.71031043  0.76564731    -0.78200
C524        C  0.55734563  0.69638836  0.75499616     1.02400
Cr525      Cr  0.58785793  0.62142841  0.76125733     1.93700
Cr526      Cr  0.65368920  0.63375076  0.80634639     1.93200
Cr527      Cr  0.63336189  0.69011550  0.75363203     1.39100
O528        O  0.62461704  0.64866517  0.77400586    -1.23300
O529        O  0.88587411  0.37055842  0.21795845    -0.85500
O530        O  0.88169583  0.40972807  0.27506517    -0.82600
C531        C  0.84779113  0.41661421  0.27465196     0.97900
O532        O  0.82501522  0.39196619  0.28248307    -0.82600
O533        O  0.79717215  0.31852343  0.29086992    -0.85200
C534        C  0.79112068  0.30548316  0.26210749     1.02500
O535        O  0.81445133  0.31056062  0.24009414    -0.78000
O536        O  0.87923875  0.31196124  0.20856597    -0.78200
C537        C  0.88208781  0.34441932  0.19813083     1.02400
O538        O  0.93949648  0.32256685  0.24574928    -0.85500
O539        O  0.92999496  0.35755805  0.30487931    -0.82600
C540        C  0.91618927  0.37115918  0.33064479     0.98000
O541        O  0.88160217  0.37558175  0.33265947    -0.82600
O542        O  0.85706225  0.30428346  0.33324970    -0.85200
C543        C  0.85196767  0.27173763  0.32374695     1.02400
O544        O  0.84563473  0.26506949  0.29334945    -0.78000
O545        O  0.91028166  0.27436863  0.26380577    -0.78200
C546        C  0.93884431  0.28898085  0.25313156     1.02400
Cr547      Cr  0.90673303  0.36307348  0.26189546     1.93700
Cr548      Cr  0.84174671  0.34738616  0.30738717     1.93200
Cr549      Cr  0.86265353  0.29336765  0.25281496     1.39100
O550        O  0.87065579  0.33440396  0.27423317    -1.23300
O551        O  0.62084453  0.16998970  0.29685839    -0.85500
O552        O  0.68322196  0.16961074  0.26156147    -0.82600
C553        C  0.70516924  0.17594723  0.23873471     0.97900
O554        O  0.69774888  0.16336832  0.21010869    -0.82600
O555        O  0.66990282  0.09008868  0.22019453    -0.85200
C556        C  0.64760289  0.06609764  0.23044190     1.02500
O557        O  0.61362717  0.07266509  0.23072714    -0.78000
O558        O  0.61084586  0.11177262  0.28803448    -0.78200
C559        C  0.61643858  0.13783941  0.30762532     1.02400
O560        O  0.58697842  0.20829000  0.24358653    -0.85500
O561        O  0.64961132  0.21647203  0.21005464    -0.82600
C562        C  0.64221971  0.20985045  0.17978136     0.98000
O563        O  0.63571969  0.17746448  0.17060298    -0.82600
O564        O  0.61101863  0.10628624  0.17243762    -0.85200
C565        C  0.57667170  0.11169655  0.17538747     1.02400
O566        O  0.56421361  0.12493866  0.20188103    -0.78000
O567        O  0.55751684  0.16010132  0.26141262    -0.78200
C568        C  0.55860256  0.19388094  0.25495697     1.02400
Cr569      Cr  0.63486111  0.18826410  0.25165467     1.93700
Cr570      Cr  0.65209694  0.13444379  0.19591445     1.93200
Cr571      Cr  0.58909358  0.11933584  0.24428549     1.39100
O572        O  0.62493094  0.14758325  0.23046328    -1.23300
O573        O  0.87061830  0.35552395  0.03898899    -0.85500
O574        O  0.83022770  0.35549176  0.98311584    -0.82600
C575        C  0.82255401  0.38924101  0.98246392     0.97900
O576        O  0.84560146  0.41192950  0.97120803    -0.82600
O577        O  0.91777748  0.44153428  0.95961820    -0.85200
C578        C  0.93017216  0.44961625  0.98810652     1.02500
O579        O  0.92408254  0.42787706  0.01101005    -0.78000
O580        O  0.92862139  0.36671469  0.04714786    -0.78200
C581        C  0.89668602  0.36169140  0.05820653     1.02400
O582        O  0.92004119  0.30275903  0.01229776    -0.85500
O583        O  0.88355749  0.30693482  0.95378281    -0.82600
C584        C  0.86962348  0.31833626  0.92736725     0.98000
O585        O  0.86281262  0.35236434  0.92420793    -0.82600
O586        O  0.93315611  0.37887122  0.92077822    -0.85200
C587        C  0.96554585  0.38606641  0.92939721     1.02400
O588        O  0.97235156  0.39513772  0.95924726    -0.78000
O589        O  0.96761646  0.33314402  0.99403620    -0.78200
C590        C  0.95375139  0.30444219  0.00526113     1.02400
Cr591      Cr  0.87794124  0.33263505  0.99581610     1.93700
Cr592      Cr  0.89012703  0.39476211  0.94648755     1.93200
Cr593      Cr  0.94542281  0.38046064  0.00153934     1.39100
O594        O  0.90485719  0.36870661  0.98101077    -1.23300
O595        O  0.06583103  0.61745653  0.95468712    -0.85500
O596        O  0.06840631  0.55432346  0.98762642    -0.82600
C597        C  0.06251144  0.53151895  0.00968233     0.97900
O598        O  0.07576817  0.53777009  0.03823816    -0.82600
O599        O  0.14870932  0.56826164  0.02913456    -0.85200
C600        C  0.17253749  0.59215189  0.02188255     1.02500
O601        O  0.16365706  0.62556563  0.02080363    -0.78000
O602        O  0.12421866  0.62708115  0.96321338    -0.78200
C603        C  0.09796738  0.62186299  0.94375218     1.02400
O604        O  0.02660897  0.64878322  0.00906600    -0.85500
O605        O  0.02041474  0.58467935  0.04071035    -0.82600
C606        C  0.02721543  0.59218923  0.07089808     0.98000
O607        O  0.05976777  0.59794902  0.07982838    -0.82600
O608        O  0.12976415  0.62506306  0.07846824    -0.85200
C609        C  0.12356909  0.65932073  0.07625627     1.02400
O610        O  0.10947053  0.67195897  0.05032790    -0.78000
O611        O  0.07446081  0.67873347  0.99099753    -0.78200
C612        C  0.04075669  0.67740590  0.99798038     1.02400
Cr613      Cr  0.04809356  0.60152560  0.99939324     1.93700
Cr614      Cr  0.10319081  0.58369975  0.05382428     1.93200
Cr615      Cr  0.11607798  0.64823729  0.00738706     1.39100
O616        O  0.08884567  0.61154595  0.02044033    -1.23300
O617        O  0.56742005  0.12224691  0.45937320    -0.85500
O618        O  0.56893659  0.05803447  0.49109241    -0.82600
C619        C  0.56301064  0.03474247  0.51279060     0.97900
O620        O  0.57659270  0.04015545  0.54140259    -0.82600
O621        O  0.64987895  0.06992513  0.53239202    -0.85200
C622        C  0.67325273  0.09339827  0.52298030     1.02500
O623        O  0.66566199  0.12707361  0.52467432    -0.78000
O624        O  0.62566137  0.13124887  0.46816773    -0.78200
C625        C  0.59967138  0.12605666  0.44853385     1.02400
O626        O  0.52952477  0.15261867  0.51544419    -0.85500
O627        O  0.52249782  0.08795926  0.54488196    -0.82600
C628        C  0.52914989  0.09343457  0.57541690     0.98000
O629        O  0.56159902  0.09887994  0.58498712    -0.82600
O630        O  0.63237857  0.12548685  0.58340618    -0.85200
C631        C  0.62699035  0.15993291  0.58192305     1.02400
O632        O  0.61295702  0.17362945  0.55641889    -0.78000
O633        O  0.57718004  0.18294700  0.49782203    -0.78200
C634        C  0.54369504  0.18170814  0.50552458     1.02400
Cr635      Cr  0.54993817  0.10548432  0.50405699     1.93700
Cr636      Cr  0.60490157  0.08524585  0.55804224     1.93200
Cr637      Cr  0.61841725  0.15112229  0.51283100     1.39100
O638        O  0.59082795  0.11431520  0.52526585    -1.23300
O639        O  0.36668551  0.85900088  0.53639345    -0.85500
O640        O  0.33014676  0.85851094  0.47774916    -0.82600
C641        C  0.32141064  0.89191484  0.47636519     0.97900
O642        O  0.34516507  0.91564375  0.46857973    -0.82600
O643        O  0.41790015  0.94655079  0.45983320    -0.85200
C644        C  0.42977384  0.95433240  0.48857526     1.02500
O645        O  0.42256832  0.93269647  0.51134214    -0.78000
O646        O  0.42409268  0.87098808  0.54718234    -0.78200
C647        C  0.39154670  0.86599654  0.55682412     1.02400
O648        O  0.41837020  0.80699299  0.51149484    -0.85500
O649        O  0.38553917  0.81145617  0.45104132    -0.82600
C650        C  0.37170011  0.82291910  0.42455682     0.98000
O651        O  0.36551903  0.85710306  0.42124347    -0.82600
O652        O  0.43588402  0.88523889  0.42076891    -0.85200
C653        C  0.46767977  0.89206337  0.43132658     1.02400
O654        O  0.47290544  0.89979910  0.46172894    -0.78000
O655        O  0.46651422  0.83793781  0.49557956    -0.78200
C656        C  0.45222586  0.80884591  0.50529269     1.02400
Cr657      Cr  0.37715509  0.83660161  0.49314689     1.93700
Cr658      Cr  0.39126807  0.89967312  0.44524594     1.93200
Cr659      Cr  0.44380220  0.88501360  0.50256061     1.39100
O660        O  0.40450873  0.87325232  0.48004245    -1.23300
O661        O  0.37978657  0.87242445  0.71710674    -0.85500
O662        O  0.38031699  0.90892914  0.77623888    -0.82600
C663        C  0.34679482  0.91724613  0.77802502     0.97900
O664        O  0.32344816  0.89293476  0.78551545    -0.82600
O665        O  0.29400896  0.81901836  0.79347924    -0.85200
C666        C  0.28639814  0.80694137  0.76469355     1.02500
O667        O  0.30811119  0.81391552  0.74186926    -0.78000
O668        O  0.37001522  0.81453537  0.70620766    -0.78200
C669        C  0.37363337  0.84726094  0.69661925     1.02400
O670        O  0.43346123  0.82204985  0.74084776    -0.85500
O671        O  0.42865797  0.85418678  0.80164960    -0.82600
C672        C  0.41670817  0.86568174  0.82904770     0.98000
O673        O  0.38263810  0.87275508  0.83223595    -0.82600
O674        O  0.35599540  0.80242822  0.83216604    -0.85200
C675        C  0.34976157  0.77029564  0.82211406     1.02400
O676        O  0.34203181  0.76461364  0.79173740    -0.78000
O677        O  0.40399214  0.77355029  0.75797263    -0.78200
C678        C  0.43267530  0.78843768  0.74791207     1.02400
Cr679      Cr  0.40296164  0.86244803  0.75995811     1.93700
Cr680      Cr  0.34035756  0.84672456  0.80818027     1.93200
Cr681      Cr  0.35634188  0.79438677  0.75082646     1.39100
O682        O  0.36693849  0.83420697  0.77318833    -1.23300
O683        O  0.11525885  0.67244989  0.79227530    -0.85500
O684        O  0.18018009  0.67037641  0.76121183    -0.82600
C685        C  0.20388088  0.67536792  0.73955650     0.97900
O686        O  0.19828358  0.66195807  0.71082616    -0.82600
O687        O  0.16842133  0.58878881  0.71959343    -0.85200
C688        C  0.14498337  0.56549908  0.72925869     1.02500
O689        O  0.11124722  0.57301176  0.72793136    -0.78000
O690        O  0.10644910  0.61406304  0.78394024    -0.78200
C691        C  0.11134856  0.64042420  0.80334376     1.02400
O692        O  0.08606295  0.70914348  0.73570666    -0.85500
O693        O  0.15110325  0.71601510  0.70693517    -0.82600
C694        C  0.14515210  0.70910701  0.67653805     0.98000
O695        O  0.13948055  0.67659833  0.66723618    -0.82600
O696        O  0.11322762  0.60603350  0.66852630    -0.85200
C697        C  0.07870033  0.61116139  0.66978794     1.02400
O698        O  0.06434748  0.62456300  0.69548077    -0.78000
O699        O  0.05505578  0.66220249  0.75383461    -0.78200
C700        C  0.05697707  0.69572862  0.74640819     1.02400
Cr701      Cr  0.13284530  0.68903561  0.74766376     1.93700
Cr702      Cr  0.15323535  0.63358187  0.69402260     1.93200
Cr703      Cr  0.08690996  0.62043336  0.73921533     1.39100
O704        O  0.12397583  0.64784330  0.72670742    -1.23300
C705        C  0.25424412  0.75075161  0.78481280    -0.21500
C706        C  0.26107656  0.77570558  0.75910714    -0.09500
C707        C  0.25187901  0.76532208  0.72638731     0.29300
C708        C  0.23668469  0.73096059  0.71970478    -0.21500
C709        C  0.22968917  0.70608374  0.74540256    -0.09500
C710        C  0.23879259  0.71644420  0.77812794     0.29300
F711        F  0.23228261  0.69345606  0.80385573    -0.20100
H712        H  0.26220602  0.75716236  0.80998061     0.17700
H713        H  0.22877641  0.72455518  0.69452079     0.17700
F714        F  0.25803158  0.78833098  0.70059200    -0.20000
C715        C  0.35789267  0.83965514  0.60450681    -0.21500
C716        C  0.38317999  0.86522901  0.59242971    -0.09500
C717        C  0.40233585  0.88740306  0.61483139     0.29300
C718        C  0.39729152  0.88287419  0.64889020    -0.21500
C719        C  0.37387584  0.85556262  0.66099188    -0.09500
C720        C  0.35354851  0.83447174  0.63855482     0.29300
F721        F  0.33013433  0.80837040  0.64949625    -0.20100
H722        H  0.34287076  0.82232160  0.58756221     0.17700
H723        H  0.41317278  0.89944386  0.66581080     0.17700
F724        F  0.42642034  0.91285978  0.60382255    -0.20000
C725        C  0.47340244  0.98542803  0.52677666    -0.21500
C726        C  0.46129091  0.97935876  0.49401695    -0.09500
C727        C  0.48465249  0.98929589  0.46775394     0.29300
C728        C  0.51912171  0.00431209  0.47429259    -0.21500
C729        C  0.53135563  0.01002233  0.50707260    -0.09500
C730        C  0.50789469  0.00029157  0.53330505     0.29300
F731        F  0.51751299  0.00642587  0.56531271    -0.20100
H732        H  0.45641921  0.97757913  0.54764329     0.17700
H733        H  0.53607317  0.01238722  0.45347635     0.17700
F734        F  0.47491830  0.98333194  0.43574620    -0.20000
C735        C  0.12806161  0.65028609  0.89516792    -0.21500
C736        C  0.10409460  0.62388547  0.90791453    -0.09500
C737        C  0.08399504  0.60184046  0.88612524     0.29300
C738        C  0.08757245  0.60655624  0.85198221    -0.21500
C739        C  0.11036724  0.63399766  0.83921771    -0.09500
C740        C  0.13084744  0.65573101  0.86102769     0.29300
F741        F  0.15338871  0.68222720  0.84937963    -0.20100
H742        H  0.14349539  0.66772355  0.91171569     0.17700
H743        H  0.07150885  0.58959999  0.83552163     0.17700
F744        F  0.06075489  0.57599191  0.89785957    -0.20000
C745        C  0.97473847  0.48010358  0.02551082    -0.21500
C746        C  0.96105344  0.47534125  0.99307701    -0.09500
C747        C  0.98258169  0.48719150  0.96627040     0.29300
C748        C  0.01708248  0.50245252  0.97191791    -0.21500
C749        C  0.03098894  0.50667131  0.00435865    -0.09500
C750        C  0.00924258  0.49519242  0.03114559     0.29300
F751        F  0.02061193  0.49964121  0.06290142    -0.20100
H752        H  0.95910926  0.47087058  0.04677288     0.17700
H753        H  0.03267215  0.51192680  0.95072179     0.17700
F754        F  0.97098417  0.48297738  0.93455392    -0.20000
C755        C  0.63789856  0.15146131  0.36463370    -0.21500
C756        C  0.61519752  0.13135801  0.34351633    -0.09500
C757        C  0.58916747  0.10739507  0.35714933     0.29300
C758        C  0.58466101  0.10527848  0.39147525    -0.21500
C759        C  0.60665277  0.12620612  0.41261166    -0.09500
C760        C  0.63408937  0.14858012  0.39896848     0.29300
F761        F  0.65584387  0.16924478  0.41868642    -0.20100
H762        H  0.65815457  0.16992676  0.35448776     0.17700
H763        H  0.56361465  0.08767231  0.40155786     0.17700
F764        F  0.56660879  0.08771896  0.33733048    -0.20000
C765        C  0.86457110  0.32787827  0.14095076    -0.21500
C766        C  0.88314298  0.35138977  0.16246980    -0.09500
C767        C  0.90444505  0.38002616  0.14948966     0.29300
C768        C  0.90832882  0.38384806  0.11528226    -0.21500
C769        C  0.89025084  0.35986665  0.09386557    -0.09500
C770        C  0.86774223  0.33226108  0.10683168     0.29300
F771        F  0.85053430  0.30820366  0.08654367    -0.20100
H772        H  0.84803097  0.30575161  0.15057854     0.17700
H773        H  0.92575914  0.40519357  0.10549432     0.17700
F774        F  0.92299610  0.40306940  0.16975825    -0.20000
C775        C  0.75632847  0.25160557  0.28261431    -0.21500
C776        C  0.76459011  0.27545209  0.25645213    -0.09500
C777        C  0.75548720  0.26465569  0.22383960     0.29300
C778        C  0.73890413  0.23077284  0.21775415    -0.21500
C779        C  0.73096664  0.20677111  0.24394617    -0.09500
C780        C  0.73996873  0.21771666  0.27654097     0.29300
F781        F  0.73253690  0.19572293  0.30278453    -0.20100
H782        H  0.76412175  0.25840297  0.30777630     0.17700
H783        H  0.73103800  0.22393886  0.19262197     0.17700
F784        F  0.76309618  0.28673556  0.19769555    -0.20000
C785        C  0.52989592  0.75799812  0.75261611    -0.21500
C786        C  0.52558727  0.71990670  0.75046361    -0.09500
C787        C  0.49101717  0.70504254  0.74411474     0.29300
C788        C  0.46108102  0.72800238  0.74141849    -0.21500
C789        C  0.46520595  0.76590247  0.74501913    -0.09500
C790        C  0.49990849  0.78095238  0.74983403     0.29300
F791        F  0.50456352  0.81746726  0.75388763    -0.20100
H792        H  0.55641607  0.77009337  0.75710819     0.17700
H793        H  0.43438025  0.71600780  0.73755952     0.17700
F794        F  0.48577470  0.66842941  0.74180694    -0.20000
C795        C  0.99931476  0.78059731  0.74941198    -0.21500
C796        C  0.96492302  0.76557549  0.75537312    -0.09500
C797        C  0.96122399  0.72795777  0.76145951     0.29300
C798        C  0.99154966  0.70531070  0.75937478    -0.21500
C799        C  0.02569391  0.71995025  0.75114343    -0.09500
C800        C  0.02961072  0.75803786  0.74715056     0.29300
F801        F  0.06240645  0.77358767  0.74016200    -0.20100
H802        H  0.00248024  0.80955763  0.74476432     0.17700
H803        H  0.98808094  0.67625867  0.76324363     0.17700
F804        F  0.92820239  0.71300238  0.76865823    -0.20000
C805        C  0.75347941  0.75217898  0.71620821    -0.21500
C806        C  0.76195843  0.77609804  0.74230281    -0.09500
C807        C  0.75453056  0.76465722  0.77514680     0.29300
C808        C  0.73911931  0.73034734  0.78150468    -0.21500
C809        C  0.73036241  0.70657043  0.75539376    -0.09500
C810        C  0.73798995  0.71789289  0.72258235     0.29300
F811        F  0.72975320  0.69599535  0.69644508    -0.20100
H812        H  0.76009564  0.75939279  0.69087326     0.17700
H813        H  0.73242700  0.72315960  0.80683179     0.17700
F814        F  0.76261247  0.78653311  0.80135092    -0.20000
C815        C  0.51212862  0.27835282  0.49276796    -0.21500
C816        C  0.47455048  0.27455970  0.49866564    -0.09500
C817        C  0.45964785  0.24017865  0.50529778     0.29300
C818        C  0.48245274  0.21003110  0.50702059    -0.21500
C819        C  0.52031505  0.21380018  0.50202869    -0.09500
C820        C  0.53498744  0.24815984  0.49427139     0.29300
F821        F  0.57133022  0.25288629  0.48905357    -0.20100
H822        H  0.52388630  0.30488836  0.48757326     0.17700
H823        H  0.47042012  0.18380528  0.51289792     0.17700
F824        F  0.42350548  0.23603967  0.51200407    -0.20000
C825        C  0.53537930  0.74917861  0.51068312    -0.21500
C826        C  0.51970498  0.71478047  0.50557584    -0.09500
C827        C  0.48140545  0.71133305  0.50384981     0.29300
C828        C  0.45947388  0.74212419  0.50552385    -0.21500
C829        C  0.47526382  0.77665395  0.50867667    -0.09500
C830        C  0.51336011  0.78005660  0.51212157     0.29300
F831        F  0.52938443  0.81317641  0.51625900    -0.20100
H832        H  0.56471842  0.75234064  0.51251820     0.17700
H833        H  0.43019475  0.73903643  0.50289110     0.17700
F834        F  0.46498846  0.67838460  0.49986869    -0.20000
C835        C  0.58232539  0.60711138  0.61393182    -0.21500
C836        C  0.60386048  0.62840311  0.59268809    -0.09500
C837        C  0.62938428  0.65299035  0.60605863     0.29300
C838        C  0.63224594  0.65707147  0.64032320    -0.21500
C839        C  0.61043018  0.63605762  0.66155484    -0.09500
C840        C  0.58584175  0.61052637  0.64819139     0.29300
F841        F  0.56392837  0.59023238  0.66818121    -0.20100
H842        H  0.56251904  0.58810262  0.60395727     0.17700
H843        H  0.65132106  0.67681202  0.65030337     0.17700
F844        F  0.65019035  0.67438317  0.58605051    -0.20000
C845        C  0.47435281  0.48337661  0.47671517    -0.21500
C846        C  0.46088958  0.47875644  0.50935554    -0.09500
C847        C  0.48260456  0.49100611  0.53578842     0.29300
C848        C  0.51688624  0.50669283  0.52961035    -0.21500
C849        C  0.53049854  0.51096570  0.49698510    -0.09500
C850        C  0.50863609  0.49899706  0.47053992     0.29300
F851        F  0.51967694  0.50343681  0.43861785    -0.20100
H852        H  0.45867073  0.47374822  0.45571316     0.17700
H853        H  0.53255671  0.51642517  0.55057872     0.17700
F854        F  0.47143670  0.48673028  0.56768631    -0.20000
C855        C  0.46204452  0.22630116  0.26548028    -0.21500
C856        C  0.46696737  0.26419295  0.26220528    -0.09500
C857        C  0.50225366  0.27881317  0.26107800     0.29300
C858        C  0.53206484  0.25548831  0.26041235    -0.21500
C859        C  0.52707190  0.21742004  0.26093501    -0.09500
C860        C  0.49192476  0.20292801  0.26499418     0.29300
F861        F  0.48617991  0.16634976  0.26654165    -0.20100
H862        H  0.43491289  0.21462993  0.26711721     0.17700
H863        H  0.55907259  0.26731218  0.25812768     0.17700
F864        F  0.50795245  0.31530274  0.25824681    -0.20000
C865        C  0.35778590  0.34349560  0.39939281    -0.21500
C866        C  0.38709996  0.36414690  0.41173472    -0.09500
C867        C  0.41100191  0.38154417  0.38946251     0.29300
C868        C  0.40627958  0.37715605  0.35542881    -0.21500
C869        C  0.37832865  0.35472307  0.34326455    -0.09500
C870        C  0.35368052  0.33836732  0.36534458     0.29300
F871        F  0.32602738  0.31713358  0.35399529    -0.20100
H872        H  0.33905220  0.32986881  0.41614059     0.17700
H873        H  0.42555012  0.38988056  0.33857739     0.17700
F874        F  0.43931535  0.40210075  0.40052889    -0.20000
C875        C  0.96577419  0.22787933  0.24518762    -0.21500
C876        C  0.97082871  0.26576331  0.24849996    -0.09500
C877        C  0.00616566  0.28025558  0.24924405     0.29300
C878        C  0.03597802  0.25680538  0.24859617    -0.21500
C879        C  0.03088293  0.21874036  0.24706358    -0.09500
C880        C  0.99554103  0.20443724  0.24437738     0.29300
F881        F  0.98955582  0.16790607  0.24255820    -0.20100
H882        H  0.93860771  0.21624069  0.24402861     0.17700
H883        H  0.06308791  0.26848580  0.25026091     0.17700
F884        F  0.01191183  0.31671000  0.25242441    -0.20000
C885        C  0.24433419  0.22573004  0.28254110    -0.21500
C886        C  0.23362160  0.20413899  0.25551286    -0.09500
C887        C  0.23895936  0.21822936  0.22315837     0.29300
C888        C  0.25436999  0.25288549  0.21826974    -0.21500
C889        C  0.26488989  0.27454957  0.24535458    -0.09500
C890        C  0.25949713  0.26042593  0.27767334     0.29300
F891        F  0.26939484  0.27997682  0.30483530    -0.20100
H892        H  0.23952217  0.21645408  0.30767806     0.17700
H893        H  0.25919164  0.26221984  0.19315297     0.17700
F894        F  0.22860582  0.19877661  0.19606954    -0.20000
C895        C  0.03738802  0.24517295  0.01040974    -0.21500
C896        C  0.02140087  0.21048705  0.00961049    -0.09500
C897        C  0.98317382  0.20699471  0.01152556     0.29300
C898        C  0.96129149  0.23791595  0.01175090    -0.21500
C899        C  0.97715382  0.27258799  0.00995386    -0.09500
C900        C  0.01546260  0.27616217  0.01053116     0.29300
F901        F  0.03177656  0.30945413  0.01035092    -0.20100
H902        H  0.06679107  0.24834716  0.00941957     0.17700
H903        H  0.93188693  0.23461849  0.01183686     0.17700
F904        F  0.96682514  0.17373840  0.01227317    -0.20000
C905        C  0.13895781  0.14927422  0.13854883    -0.21500
C906        C  0.11735989  0.12832615  0.16008537    -0.09500
C907        C  0.09318615  0.10227387  0.14690605     0.29300
C908        C  0.08932986  0.09880669  0.11262931    -0.21500
C909        C  0.11015727  0.12051036  0.09110333    -0.09500
C910        C  0.13578530  0.14513204  0.10427595     0.29300
F911        F  0.15605390  0.16685790  0.08410784    -0.20100
H912        H  0.15778691  0.16939026  0.14829278     0.17700
H913        H  0.06948675  0.07970424  0.10286932     0.17700
F914        F  0.07165390  0.08179384  0.16706942    -0.20000
C915        C  0.00947413  0.77416446  0.98933876    -0.21500
C916        C  0.97135544  0.76966297  0.98836164    -0.09500
C917        C  0.95647037  0.73443397  0.98678123     0.29300
C918        C  0.97949631  0.70428393  0.98894140    -0.21500
C919        C  0.01741583  0.70904476  0.99231842    -0.09500
C920        C  0.03238080  0.74418069  0.99141582     0.29300
F921        F  0.06885409  0.74978162  0.99462364    -0.20100
H922        H  0.02166926  0.80110127  0.98999217     0.17700
H923        H  0.96757985  0.67721498  0.98883913     0.17700
F924        F  0.91984417  0.72906874  0.98500142    -0.20000
C925        C  0.85705441  0.83672449  0.89487627    -0.21500
C926        C  0.88121721  0.86289596  0.90758193    -0.09500
C927        C  0.89953833  0.88659724  0.88589855     0.29300
C928        C  0.89518255  0.88273009  0.85173804    -0.21500
C929        C  0.87325560  0.85462632  0.83894448    -0.09500
C930        C  0.85337542  0.83224868  0.86074144     0.29300
F931        F  0.83129585  0.80540194  0.84907555    -0.20100
H932        H  0.84266233  0.81829723  0.91135714     0.17700
H933        H  0.91056188  0.90038039  0.83529397     0.17700
F934        F  0.92227558  0.91278885  0.89773403    -0.20000
C935        C  0.97510932  0.98143595  0.97311015    -0.21500
C936        C  0.96373008  0.97379856  0.00587700    -0.09500
C937        C  0.98752064  0.98267315  0.03196315     0.29300
C938        C  0.02162781  0.99840676  0.02529713    -0.21500
C939        C  0.03299124  0.00613148  0.99256561    -0.09500
C940        C  0.00919367  0.99729529  0.96644649     0.29300
F941        F  0.01801949  0.00535194  0.93455661    -0.20100
H942        H  0.95779075  0.97429827  0.95235842     0.17700
H943        H  0.03891583  0.00558763  0.04605922     0.17700
F944        F  0.97856989  0.97494711  0.06388832    -0.20000
C945        C  0.65816908  0.98602723  0.28806665    -0.21500
C946        C  0.66145400  0.95693411  0.26558716    -0.09500
C947        C  0.66627916  0.96476149  0.23166740     0.29300
C948        C  0.66547319  0.00103179  0.22031363    -0.21500
C949        C  0.65979919  0.02996907  0.24262682    -0.09500
C950        C  0.65747963  0.02220874  0.27677351     0.29300
F951        F  0.65171341  0.04945351  0.29903512    -0.20100
H952        H  0.65339878  0.98060650  0.31413766     0.17700
H953        H  0.66641442  0.00627708  0.19389048     0.17700
F954        F  0.66823034  0.93716832  0.20920353    -0.20000
C955        C  0.56139728  0.87619618  0.39208222    -0.21500
C956        C  0.55443431  0.88553641  0.35892348    -0.09500
C957        C  0.52000892  0.90019875  0.35078195     0.29300
C958        C  0.49253773  0.90319815  0.37473260    -0.21500
C959        C  0.49867050  0.89210687  0.40749101    -0.09500
C960        C  0.53372509  0.87946273  0.41627951     0.29300
F961        F  0.54045631  0.86789243  0.44762381    -0.20100
H962        H  0.58746063  0.86441409  0.39884248     0.17700
H963        H  0.46605563  0.91362028  0.36745870     0.17700
F964        F  0.51252022  0.91073210  0.31924623    -0.20000
C965        C  0.63547589  0.70859881  0.33933517    -0.21500
C966        C  0.64264794  0.74496082  0.34899966    -0.09500
C967        C  0.64801430  0.75237426  0.38287543     0.29300
C968        C  0.64451996  0.72471249  0.40639456    -0.21500
C969        C  0.63549839  0.68875691  0.39716257    -0.09500
C970        C  0.63179222  0.68068144  0.36319574     0.29300
F971        F  0.62250558  0.64653776  0.35322503    -0.20100
H972        H  0.63129487  0.70205140  0.31341844     0.17700
H973        H  0.64802632  0.73178967  0.43229914     0.17700
F974        F  0.65632303  0.78655643  0.39354165    -0.20000
C975        C  0.82165973  0.49985385  0.22369203    -0.21500
C976        C  0.83504720  0.52811962  0.24397944    -0.09500
C977        C  0.84683291  0.51917065  0.27621005     0.29300
C978        C  0.84759600  0.48290690  0.28701834    -0.21500
C979        C  0.83643239  0.45442190  0.26620647    -0.09500
C980        C  0.82238723  0.46321458  0.23467620     0.29300
F981        F  0.81261157  0.43618590  0.21342310    -0.20100
H982        H  0.81335270  0.50573076  0.19851031     0.17700
H983        H  0.85915097  0.47681605  0.31109035     0.17700
F984        F  0.86009756  0.54529963  0.29668889    -0.20000
C985        C  0.96066168  0.58551706  0.08919876    -0.21500
C986        C  0.99738143  0.59449097  0.09633714    -0.09500
C987        C  0.00558245  0.60715336  0.12842276     0.29300
C988        C  0.97827068  0.61131552  0.15212422    -0.21500
C989        C  0.94142610  0.60329170  0.14526978    -0.09500
C990        C  0.93285567  0.58978886  0.11344727     0.29300
F991        F  0.89790097  0.58116488  0.10562766    -0.20100
H992        H  0.95342469  0.57551348  0.06480021     0.17700
H993        H  0.98646276  0.62160081  0.17617760     0.17700
F994        F  0.04010147  0.61659541  0.13714897    -0.20000
C995        C  0.85417812  0.77399051  0.15960059    -0.21500
C996        C  0.85214278  0.73681299  0.15046728    -0.09500
C997        C  0.85466329  0.72783234  0.11655180     0.29300
C998        C  0.85979212  0.75497807  0.09279703    -0.21500
C999        C  0.86269942  0.79203470  0.10173728    -0.09500
C1000       C  0.85949317  0.80139022  0.13552459     0.29300
F1001       F  0.86284886  0.83665074  0.14542927    -0.20100
H1002       H  0.85257513  0.78180792  0.18548761     0.17700
H1003       H  0.86182479  0.74666615  0.06704843     0.17700
F1004       F  0.85246542  0.69266340  0.10602160    -0.20000
C1005       C  0.75229179  0.71717858  0.27572756    -0.21500
C1006       C  0.76090316  0.70686506  0.24285604    -0.09500
C1007       C  0.75345574  0.73194379  0.21733903     0.29300
C1008       C  0.73804632  0.76616172  0.22472001    -0.21500
C1009       C  0.72972733  0.77653039  0.25764195    -0.09500
C1010       C  0.73712760  0.75142796  0.28312426     0.29300
F1011       F  0.72844856  0.75923925  0.31512779    -0.20100
H1012       H  0.75842112  0.69891486  0.29607226     0.17700
H1013       H  0.73190175  0.78447600  0.20441941     0.17700
F1014       F  0.76254718  0.72424561  0.18541426    -0.20000
C1015       C  0.23887580  0.11059430  0.96696867    -0.21500
C1016       C  0.21380764  0.08512571  0.97944848    -0.09500
C1017       C  0.22661551  0.05839312  0.00176493     0.29300
C1018       C  0.26312124  0.05961639  0.01342152    -0.21500
C1019       C  0.28695158  0.08767907  0.00310802    -0.09500
C1020       C  0.27459235  0.11210872  0.97860247     0.29300
F1021       F  0.29648848  0.13916250  0.96702305    -0.20100
H1022       H  0.22999754  0.13130082  0.94958965     0.17700
H1023       H  0.27186669  0.04032866  0.03209532     0.17700
F1024       F  0.20325487  0.03321409  0.01436893    -0.20000
C1025       C  0.35062322  0.22158506  0.09925234    -0.21500
C1026       C  0.35948462  0.18549824  0.10794309    -0.09500
C1027       C  0.36254706  0.17675687  0.14180555     0.29300
C1028       C  0.35863354  0.20430889  0.16614307    -0.21500
C1029       C  0.35189079  0.24089012  0.15699296    -0.09500
C1030       C  0.34697115  0.24884723  0.12317877     0.29300
F1031       F  0.33916164  0.28326094  0.11292355    -0.20100
H1032       H  0.34754413  0.22912379  0.07343258     0.17700
H1033       H  0.36244853  0.19734731  0.19199240     0.17700
F1034       F  0.37153029  0.14236970  0.15122425    -0.20000
C1035       C  0.48606608  0.09364109  0.13290393    -0.21500
C1036       C  0.49548518  0.09323913  0.09916016    -0.09500
C1037       C  0.53288918  0.09579955  0.09048765     0.29300
C1038       C  0.55972392  0.10026171  0.11519431    -0.21500
C1039       C  0.54980428  0.10230000  0.14889201    -0.09500
C1040       C  0.51256135  0.09797070  0.15735628     0.29300
F1041       F  0.50132169  0.09840730  0.18949964    -0.20100
H1042       H  0.45778232  0.09125704  0.14058338     0.17700
H1043       H  0.58802720  0.10351242  0.10788372     0.17700
F1044       F  0.54348589  0.09551235  0.05818773    -0.20000
C1045       C  0.75613506  0.88294507  0.03720443    -0.21500
C1046       C  0.78293671  0.90121603  0.01883308    -0.09500
C1047       C  0.77204821  0.92151800  0.99084109     0.29300
C1048       C  0.73520209  0.92107061  0.98030108    -0.21500
C1049       C  0.70903462  0.90005109  0.99739633    -0.09500
C1050       C  0.71988697  0.88222716  0.02673867     0.29300
F1051       F  0.69595603  0.86167125  0.04429116    -0.20100
H1052       H  0.76383936  0.86676959  0.05855573     0.17700
H1053       H  0.72784394  0.93462335  0.95743516     0.17700
F1054       F  0.79747225  0.93871697  0.97195095    -0.20000
C1055       C  0.63945650  0.75747047  0.90825614    -0.21500
C1056       C  0.63539905  0.79432553  0.89919575    -0.09500
C1057       C  0.63709754  0.80342125  0.86532730     0.29300
C1058       C  0.64133501  0.77577025  0.84122600    -0.21500
C1059       C  0.64382326  0.73867957  0.85049893    -0.09500
C1060       C  0.64354234  0.73008902  0.88448894     0.29300
F1061       F  0.64667887  0.69505920  0.89505185    -0.20100
H1062       H  0.63875509  0.74950533  0.93411888     0.17700
H1063       H  0.64145709  0.78328470  0.81525984     0.17700
F1064       F  0.63285580  0.83855622  0.85542940    -0.20000
C1065       C  0.58557582  0.88428002  0.11485409    -0.21500
C1066       C  0.60592362  0.86172734  0.09356676    -0.09500
C1067       C  0.63156569  0.83725920  0.10697728     0.29300
C1068       C  0.63531740  0.83420481  0.14123087    -0.21500
C1069       C  0.61426792  0.85600959  0.16255113    -0.09500
C1070       C  0.59003830  0.88186776  0.14916268     0.29300
F1071       F  0.56911033  0.90321729  0.16921109    -0.20100
H1072       H  0.56586039  0.90337880  0.10490983     0.17700
H1073       H  0.65415232  0.81421988  0.15116061     0.17700
F1074       F  0.65141514  0.81469963  0.08711481    -0.20000
C1075       C  0.46542629  0.89767347  0.90841812    -0.21500
C1076       C  0.50004551  0.88118645  0.90437809    -0.09500
C1077       C  0.50597156  0.85917856  0.87620443     0.29300
C1078       C  0.47846632  0.85421030  0.85276241    -0.21500
C1079       C  0.44400013  0.87097766  0.85622928    -0.09500
C1080       C  0.43768396  0.89282567  0.88451425     0.29300
F1081       F  0.40525336  0.91021895  0.88865690    -0.20100
H1082       H  0.46003604  0.91481137  0.92981461     0.17700
H1083       H  0.48440089  0.83688105  0.83159851     0.17700
F1084       F  0.53827026  0.84163287  0.87142852    -0.20000
C1085       C  0.51598121  0.97863511  0.02524845    -0.21500
C1086       C  0.53073189  0.97453341  0.99302992    -0.09500
C1087       C  0.50980228  0.98663576  0.96600747     0.29300
C1088       C  0.47568501  0.00314504  0.97137350    -0.21500
C1089       C  0.46138268  0.00785762  0.00369613    -0.09500
C1090       C  0.48174274  0.99460472  0.03056234     0.29300
F1091       F  0.46956096  0.99867078  0.06220575    -0.20100
H1092       H  0.53078903  0.96872950  0.04663545     0.17700
H1093       H  0.46088652  0.01345133  0.95013826     0.17700
F1094       F  0.52176598  0.98186496  0.93438274    -0.20000
C1095       C  0.15103518  0.23221505  0.37986524    -0.21500
C1096       C  0.14664212  0.23974765  0.34601006    -0.09500
C1097       C  0.13860398  0.27599323  0.33650230     0.29300
C1098       C  0.13327955  0.30341452  0.36068253    -0.21500
C1099       C  0.13583849  0.29512562  0.39462714    -0.09500
C1100       C  0.14590271  0.25936282  0.40380215     0.29300
F1101       F  0.15032881  0.25034759  0.43620288    -0.20100
H1102       H  0.15785173  0.20488302  0.38800623     0.17700
H1103       H  0.12549314  0.33061811  0.35294441     0.17700
F1104       F  0.13385632  0.28451718  0.30406177    -0.20000
C1105       C  0.21947719  0.37539819  0.52209276    -0.21500
C1106       C  0.20920463  0.39640875  0.49451837    -0.09500
C1107       C  0.23488335  0.42104634  0.48116796     0.29300
C1108       C  0.27094412  0.42223215  0.49377625    -0.21500
C1109       C  0.28157636  0.39911961  0.51998794    -0.09500
C1110       C  0.25489891  0.37674718  0.53470381     0.29300
F1111       F  0.26386248  0.35409157  0.56004270    -0.20100
H1112       H  0.20034149  0.35637002  0.53310913     0.17700
H1113       H  0.29114215  0.43909146  0.48148423     0.17700
F1114       F  0.22615783  0.44147393  0.45431171    -0.20000
C1115       C  0.00497584  0.39760178  0.37142935    -0.21500
C1116       C  0.99791647  0.39090841  0.40503334    -0.09500
C1117       C  0.96177010  0.38244911  0.41483915     0.29300
C1118       C  0.93409957  0.37819767  0.39092397    -0.21500
C1119       C  0.94205051  0.38260952  0.35705295    -0.09500
C1120       C  0.97751899  0.39385282  0.34780307     0.29300
F1121       F  0.98607913  0.40024919  0.31552138    -0.20100
H1122       H  0.03217309  0.40506350  0.36322447     0.17700
H1123       H  0.90711968  0.36953853  0.39869703     0.17700
F1124       F  0.95364841  0.37605884  0.44718901    -0.20000
C1125       C  0.75456747  0.58809020  0.53734912    -0.21500
C1126       C  0.78272246  0.57904381  0.51511900    -0.09500
C1127       C  0.77338491  0.56944447  0.48233035     0.29300
C1128       C  0.73671651  0.57092734  0.47172162    -0.21500
C1129       C  0.70888654  0.58222104  0.49359576    -0.09500
C1130       C  0.71813654  0.58958497  0.52683021     0.29300
F1131       F  0.69215472  0.60054529  0.54876417    -0.20100
H1132       H  0.76109647  0.59641271  0.56244258     0.17700
H1133       H  0.73048016  0.56589188  0.44587488     0.17700
F1134       F  0.80002312  0.56189221  0.45982637    -0.20000
C1135       C  0.88386982  0.71839061  0.60251618    -0.21500
C1136       C  0.86740331  0.68389591  0.60630874    -0.09500
C1137       C  0.84640863  0.67754986  0.63512403     0.29300
C1138       C  0.84134189  0.70573559  0.65878310    -0.21500
C1139       C  0.85692184  0.74062057  0.65392505    -0.09500
C1140       C  0.87873549  0.74618837  0.62560822     0.29300
F1141       F  0.89572857  0.77858695  0.62013168    -0.20100
H1142       H  0.90088874  0.72432692  0.58115200     0.17700
H1143       H  0.82465891  0.70053243  0.68050761     0.17700
F1144       F  0.83010991  0.64473774  0.64003065    -0.20000
C1145       C  0.89754503  0.60369550  0.35268270    -0.21500
C1146       C  0.87687657  0.63311741  0.34054601    -0.09500
C1147       C  0.85892748  0.65643104  0.36303094     0.29300
C1148       C  0.86236388  0.65067726  0.39710877    -0.21500
C1149       C  0.88446885  0.62231044  0.40908893    -0.09500
C1150       C  0.90171463  0.59855465  0.38668480     0.29300
F1151       F  0.92278965  0.57060731  0.39768623    -0.20100
H1152       H  0.91166580  0.58539920  0.33581088     0.17700
H1153       H  0.84904838  0.66935487  0.41418058     0.17700
F1154       F  0.83840744  0.68484133  0.35214266    -0.20000
C1155       C  0.03315337  0.60262951  0.58484055    -0.21500
C1156       C  0.99789556  0.59076639  0.59410824    -0.09500
C1157       C  0.99156138  0.58171181  0.62752615     0.29300
C1158       C  0.01889586  0.58653867  0.65123397    -0.21500
C1159       C  0.05346468  0.60034699  0.64252809    -0.09500
C1160       C  0.06073389  0.60753947  0.60884180     0.29300
F1161       F  0.09341173  0.62170704  0.59948755    -0.20100
H1162       H  0.03880764  0.60984638  0.55929180     0.17700
H1163       H  0.01259925  0.58039198  0.67690878     0.17700
F1164       F  0.95862097  0.56864788  0.63751794    -0.20000
C1165       C  0.01001720  0.48205663  0.46699735    -0.21500
C1166       C  0.03394706  0.47532019  0.49345219    -0.09500
C1167       C  0.02185781  0.48351513  0.52594904     0.29300
C1168       C  0.98681705  0.49770585  0.53167636    -0.21500
C1169       C  0.96290203  0.50448497  0.50523283    -0.09500
C1170       C  0.97493041  0.49615210  0.47273112     0.29300
F1171       F  0.95285051  0.50211002  0.44630462    -0.20100
H1172       H  0.01780400  0.47485303  0.44186947     0.17700
H1173       H  0.97905654  0.50495796  0.55679986     0.17700
F1174       F  0.04386442  0.47735711  0.55238369    -0.20000
C1175       C  0.35781457  0.01907657  0.77896726    -0.21500
C1176       C  0.33887851  0.03000388  0.75038309    -0.09500
C1177       C  0.31635548  0.00421469  0.73444085     0.29300
C1178       C  0.31564488  0.96750353  0.74546202    -0.21500
C1179       C  0.33716902  0.95629590  0.77256315    -0.09500
C1180       C  0.35708689  0.98292213  0.78987637     0.29300
F1181       F  0.37831589  0.97329880  0.81599385    -0.20100
H1182       H  0.37529648  0.03826707  0.79182225     0.17700
H1183       H  0.30068033  0.94737715  0.73125803     0.17700
F1184       F  0.29790815  0.01354291  0.70659642    -0.20000
C1185       C  0.43513515  0.10275164  0.61647019    -0.21500
C1186       C  0.44419938  0.09908029  0.65012872    -0.09500
C1187       C  0.48045072  0.08976578  0.65837332     0.29300
C1188       C  0.50734464  0.08692968  0.63385443    -0.21500
C1189       C  0.49898899  0.09279792  0.60036030    -0.09500
C1190       C  0.46223318  0.09957649  0.59171573     0.29300
F1191       F  0.45279367  0.10522392  0.55961830    -0.20100
H1192       H  0.40754510  0.10998315  0.60944636     0.17700
H1193       H  0.53507922  0.08079208  0.64127494     0.17700
F1194       F  0.49025468  0.08423088  0.69043288    -0.20000
C1195       C  0.40184571  0.16772783  0.86218412    -0.21500
C1196       C  0.38313374  0.14097850  0.84402113    -0.09500
C1197       C  0.36862051  0.11034487  0.86038133     0.29300
C1198       C  0.37325050  0.10652308  0.89455141    -0.21500
C1199       C  0.39318962  0.13265238  0.91222729    -0.09500
C1200       C  0.40721758  0.16342041  0.89606014     0.29300
F1201       F  0.42575844  0.18941605  0.91316488    -0.20100
H1202       H  0.41330262  0.19144054  0.84994664     0.17700
H1203       H  0.36193839  0.08295408  0.90711767     0.17700
F1204       F  0.34980186  0.08445219  0.84344235    -0.20000
C1205       C  0.35048562  0.27509697  0.66222590    -0.21500
C1206       C  0.35349036  0.23789010  0.65313743    -0.09500
C1207       C  0.35964469  0.22945182  0.61953895     0.29300
C1208       C  0.36407180  0.25718448  0.59620692    -0.21500
C1209       C  0.36259719  0.29439367  0.60524131    -0.09500
C1210       C  0.35490497  0.30311573  0.63856502     0.29300
F1211       F  0.35276184  0.33847183  0.64850646    -0.20100
H1212       H  0.34549336  0.28259223  0.68784565     0.17700
H1213       H  0.36929438  0.24917019  0.57074608     0.17700
F1214       F  0.36207062  0.19430270  0.60898746    -0.20000
C1215       C  0.14299840  0.48318591  0.78534418    -0.21500
C1216       C  0.15658126  0.45545085  0.76474684    -0.09500
C1217       C  0.17180299  0.46515887  0.73380401     0.29300
C1218       C  0.17127151  0.50186755  0.72307982    -0.21500
C1219       C  0.15528239  0.52919444  0.74298857    -0.09500
C1220       C  0.14238194  0.51950552  0.77474153     0.29300
F1221       F  0.12690974  0.54487466  0.79489213    -0.20100
H1222       H  0.13052101  0.47633001  0.80894653     0.17700
H1223       H  0.18073318  0.50841647  0.69831180     0.17700
F1224       F  0.18397371  0.43882418  0.71275429    -0.20000
C1225       C  0.98481754  0.38116997  0.87036656    -0.21500
C1226       C  0.99496632  0.38459139  0.90372930    -0.09500
C1227       C  0.03258084  0.38523514  0.91144639     0.29300
C1228       C  0.05908013  0.38144974  0.88614176    -0.21500
C1229       C  0.04853616  0.37691694  0.85284259    -0.09500
C1230       C  0.01087015  0.37745505  0.84537277     0.29300
F1231       F  0.99872031  0.37405697  0.81372711    -0.20100
H1232       H  0.95628713  0.38097664  0.86335442     0.17700
H1233       H  0.08772827  0.38101674  0.89269921     0.17700
F1234       F  0.04378340  0.38832447  0.94337308    -0.20000
C1235       C  0.13366035  0.33333221  0.60230029    -0.21500
C1236       C  0.10912614  0.35921683  0.58966488    -0.09500
C1237       C  0.09025488  0.38250841  0.61145154     0.29300
C1238       C  0.09488293  0.37891672  0.64554547    -0.21500
C1239       C  0.11759782  0.35147031  0.65827552    -0.09500
C1240       C  0.13756352  0.32908452  0.63644819     0.29300
F1241       F  0.16024277  0.30275727  0.64810171    -0.20100
H1242       H  0.14847351  0.31521127  0.58575446     0.17700
H1243       H  0.07928368  0.39642998  0.66203397     0.17700
F1244       F  0.06695024  0.40827958  0.59980306    -0.20000
C1245       C  0.13541787  0.25301462  0.88008467    -0.21500
C1246       C  0.13891931  0.24317907  0.84657718    -0.09500
C1247       C  0.13934715  0.20565846  0.83832522     0.29300
C1248       C  0.13527230  0.17894826  0.86322002    -0.21500
C1249       C  0.13063087  0.18917417  0.89664057    -0.09500
C1250       C  0.13143195  0.22672477  0.90469286     0.29300
F1251       F  0.12816813  0.23850226  0.93654344    -0.20100
H1252       H  0.13539922  0.28145918  0.88751045     0.17700
H1253       H  0.13476007  0.15038148  0.85625304     0.17700
F1254       F  0.14263948  0.19474419  0.80626617    -0.20000
C1255       C  0.23751472  0.25171443  0.78429479    -0.21500
C1256       C  0.23045462  0.27534667  0.75768209    -0.09500
C1257       C  0.24024075  0.26384356  0.72536740     0.29300
C1258       C  0.25662420  0.22975587  0.71999698    -0.21500
C1259       C  0.26404916  0.20631541  0.74662813    -0.09500
C1260       C  0.25402498  0.21764747  0.77891395     0.29300
F1261       F  0.26087148  0.19595902  0.80545113    -0.20100
H1262       H  0.22900971  0.25898817  0.80921709     0.17700
H1263       H  0.26522025  0.22254013  0.69508347     0.17700
F1264       F  0.23367260  0.28553353  0.69877186    -0.20000
C1265       C  0.13992120  0.77588220  0.66112700    -0.21500
C1266       C  0.14493490  0.73908554  0.65159175    -0.09500
C1267       C  0.14773435  0.73089119  0.61758752     0.29300
C1268       C  0.14343364  0.75820556  0.59391405    -0.21500
C1269       C  0.13626119  0.79457840  0.60314244    -0.09500
C1270       C  0.13560837  0.80348965  0.63712150     0.29300
F1271       F  0.12875056  0.83823365  0.64713182    -0.20100
H1272       H  0.13786145  0.78307244  0.68713909     0.17700
H1273       H  0.14484422  0.75054025  0.56796602     0.17700
F1274       F  0.15403240  0.69625167  0.60694502    -0.20000
C1275       C  0.21973254  0.88138913  0.47508029    -0.21500
C1276       C  0.20905989  0.89821224  0.50492752    -0.09500
C1277       C  0.23502154  0.91891601  0.52249199     0.29300
C1278       C  0.27165255  0.92023104  0.51136944    -0.21500
C1279       C  0.28254628  0.90110927  0.48260333    -0.09500
C1280       C  0.25588390  0.88275354  0.46404604     0.29300
F1281       F  0.26545304  0.86370946  0.43640207    -0.20100
H1282       H  0.20030690  0.86527849  0.46110700     0.17700
H1283       H  0.29194432  0.93370083  0.52655440     0.17700
F1284       F  0.22586952  0.93485940  0.55178535    -0.20000
C1285       C  0.03365745  0.73530026  0.49298505    -0.21500
C1286       C  0.01816483  0.77001415  0.49657696    -0.09500
C1287       C  0.97983040  0.77382916  0.49765615     0.29300
C1288       C  0.95763869  0.74309415  0.49665948    -0.21500
C1289       C  0.97327349  0.70831505  0.49482603    -0.09500
C1290       C  0.01147686  0.70458870  0.49219039     0.29300
F1291       F  0.02751392  0.67126889  0.48936713    -0.20100
H1292       H  0.06301585  0.73178733  0.49178286     0.17700
H1293       H  0.92830253  0.74645328  0.49859373     0.17700
F1294       F  0.96367731  0.80711542  0.50016368    -0.20000
C1295       C  0.96229270  0.88505288  0.58719964    -0.21500
C1296       C  0.99920728  0.88784592  0.59688313    -0.09500
C1297       C  0.00727908  0.88810854  0.63094921     0.29300
C1298       C  0.97963608  0.88341640  0.65440677    -0.21500
C1299       C  0.94300880  0.87847173  0.64491533    -0.09500
C1300       C  0.93434737  0.88045844  0.61098585     0.29300
F1301       F  0.89936795  0.87620386  0.60070119    -0.20100
H1302       H  0.95517436  0.88509397  0.56115180     0.17700
H1303       H  0.98722965  0.88293766  0.68034970     0.17700
F1304       F  0.04206443  0.89236026  0.64184379    -0.20000
C1305       C  0.85841818  0.22234106  0.40599858    -0.21500
C1306       C  0.86115014  0.18535865  0.39667600    -0.09500
C1307       C  0.85824552  0.17647256  0.36279544     0.29300
C1308       C  0.85419055  0.20443640  0.33898366    -0.21500
C1309       C  0.85314447  0.24158231  0.34860136    -0.09500
C1310       C  0.85471949  0.24992244  0.38262295     0.29300
F1311       F  0.85331455  0.28494296  0.39368046    -0.20100
H1312       H  0.85995480  0.23037295  0.43183772     0.17700
H1313       H  0.85295671  0.19709494  0.31297834     0.17700
F1314       F  0.86087240  0.14123931  0.35258631    -0.20000
C1315       C  0.75589443  0.09598990  0.46680931    -0.21500
C1316       C  0.78330860  0.08091023  0.48663468    -0.09500
C1317       C  0.77330000  0.06498131  0.51717944     0.29300
C1318       C  0.73657763  0.06596406  0.52815668    -0.21500
C1319       C  0.70961441  0.08327054  0.50898002    -0.09500
C1320       C  0.71968103  0.09726595  0.47773966     0.29300
F1321       F  0.69485946  0.11438699  0.45841620    -0.20100
H1322       H  0.76300273  0.10913236  0.44359987     0.17700
H1323       H  0.72978933  0.05574366  0.55260166     0.17700
F1324       F  0.79939151  0.05167471  0.53768985    -0.20000
C1325       C  0.98012489  0.27749400  0.50206007    -0.21500
C1326       C  0.01827834  0.27301800  0.50271051    -0.09500
C1327       C  0.03337450  0.23789662  0.50445898     0.29300
C1328       C  0.01060846  0.20777123  0.50452888    -0.21500
C1329       C  0.97258883  0.21215579  0.50289740    -0.09500
C1330       C  0.95729545  0.24722199  0.50220228     0.29300
F1331       F  0.92061802  0.25222792  0.50013589    -0.20100
H1332       H  0.96792927  0.30441508  0.50079351     0.17700
H1333       H  0.02287451  0.18084957  0.50528717     0.17700
F1334       F  0.07005482  0.23245155  0.50475705    -0.20000
C1335       C  0.01681948  0.09759129  0.34676821    -0.21500
C1336       C  0.05346083  0.10308694  0.35597683    -0.09500
C1337       C  0.06219476  0.10164486  0.38995437     0.29300
C1338       C  0.03433942  0.09687607  0.41395747    -0.21500
C1339       C  0.99737057  0.09338985  0.40450771    -0.09500
C1340       C  0.98929275  0.09277453  0.37039619     0.29300
F1341       F  0.95454386  0.08808413  0.35955838    -0.20100
H1342       H  0.00909703  0.09771737  0.32085241     0.17700
H1343       H  0.04155557  0.09721033  0.43997914     0.17700
F1344       F  0.09713414  0.10664438  0.40006717    -0.20000
C1345       C  0.98609318  0.99787198  0.46903223    -0.21500
C1346       C  0.96377188  0.00703342  0.49619379    -0.09500
C1347       C  0.97690763  0.99991521  0.52847275     0.29300
C1348       C  0.01129593  0.98399078  0.53320793    -0.21500
C1349       C  0.03349454  0.97461931  0.50600593    -0.09500
C1350       C  0.02053593  0.98213983  0.47377541     0.29300
F1351       F  0.04098620  0.97367646  0.44665322    -0.20100
H1352       H  0.97757894  0.00431456  0.44401425     0.17700
H1353       H  0.01982232  0.97751521  0.55821615     0.17700
F1354       F  0.95665443  0.00878946  0.55561676    -0.20000
C1355       C  0.32282523  0.50330174  0.27536159    -0.21500
C1356       C  0.34133886  0.52985875  0.25650690    -0.09500
C1357       C  0.35699450  0.51915755  0.22599424     0.29300
C1358       C  0.35626746  0.48269018  0.21567312    -0.21500
C1359       C  0.33993931  0.45568366  0.23531345    -0.09500
C1360       C  0.32232472  0.46637592  0.26497550     0.29300
F1361       F  0.30772363  0.44074244  0.28533599    -0.20100
H1362       H  0.31120183  0.51057305  0.29922194     0.17700
H1363       H  0.37059090  0.47510273  0.19310412     0.17700
F1364       F  0.37501855  0.54370353  0.20685213    -0.20000
C1365       C  0.43380231  0.60078511  0.38849322    -0.21500
C1366       C  0.44374381  0.60342443  0.35484710    -0.09500
C1367       C  0.48103670  0.59966738  0.34634572     0.29300
C1368       C  0.50762323  0.59618017  0.37077254    -0.21500
C1369       C  0.49822990  0.59580205  0.40452303    -0.09500
C1370       C  0.46075279  0.59687980  0.41319079     0.29300
F1371       F  0.45016765  0.59568513  0.44546613    -0.20100
H1372       H  0.40541040  0.60328816  0.39578451     0.17700
H1373       H  0.53595049  0.59445687  0.36305842     0.17700
F1374       F  0.49222220  0.60006694  0.31417837    -0.20000
C1375       C  0.46043385  0.76197623  0.25326556    -0.21500
C1376       C  0.46570002  0.72399007  0.25058190    -0.09500
C1377       C  0.50097738  0.70991178  0.24621114     0.29300
C1378       C  0.53052657  0.73346228  0.24577887    -0.21500
C1379       C  0.52540496  0.77123846  0.24981352    -0.09500
C1380       C  0.49012064  0.78556725  0.25284904     0.29300
F1381       F  0.48444679  0.82190818  0.25718749    -0.20100
H1382       H  0.43335579  0.77345056  0.25641331     0.17700
H1383       H  0.55766258  0.72195164  0.24312927     0.17700
F1384       F  0.50719884  0.67345013  0.24375636    -0.20000
C1385       C  0.35598791  0.80453048  0.36537812    -0.21500
C1386       C  0.36202601  0.79513019  0.39873202    -0.09500
C1387       C  0.36028361  0.75778856  0.40748406     0.29300
C1388       C  0.35485292  0.73085069  0.38346338    -0.21500
C1389       C  0.35055398  0.73984830  0.34989999    -0.09500
C1390       C  0.35025479  0.77724736  0.34115181     0.29300
F1391       F  0.34563254  0.78751025  0.30912005    -0.20100
H1392       H  0.35677455  0.83288896  0.35786738     0.17700
H1393       H  0.35460084  0.70257998  0.39130306     0.17700
F1394       F  0.36409194  0.74687393  0.43946239    -0.20000
C1395       C  0.17886241  0.97569147  0.23122277    -0.21500
C1396       C  0.15257335  0.95108410  0.24366303    -0.09500
C1397       C  0.12991593  0.96286407  0.26995384     0.29300
C1398       C  0.13163154  0.99850811  0.28183356    -0.21500
C1399       C  0.15538486  0.02413547  0.26774489    -0.09500
C1400       C  0.18012011  0.01219204  0.24301700     0.29300
F1401       F  0.20313223  0.03634559  0.22837007    -0.20100
H1402       H  0.19654534  0.96750923  0.21093273     0.17700
H1403       H  0.11231178  0.00685692  0.30084673     0.17700
F1404       F  0.10424356  0.94049885  0.28318703    -0.20000
C1405       C  0.05932398  0.89052142  0.11376996    -0.21500
C1406       C  0.05305566  0.86674276  0.14062800    -0.09500
C1407       C  0.02010191  0.84668072  0.14118623     0.29300
C1408       C  0.99358805  0.85186528  0.11698563    -0.21500
C1409       C  0.99887253  0.87661818  0.09095218    -0.09500
C1410       C  0.03254055  0.89532023  0.08896666     0.29300
F1411       F  0.03901453  0.91919170  0.06395241    -0.20100
H1412       H  0.08438991  0.90613180  0.11248354     0.17700
H1413       H  0.96849285  0.83630027  0.11877201     0.17700
F1414       F  0.01307701  0.82186174  0.16537765    -0.20000
C1415       C  0.03154005  0.72357415  0.25195440    -0.21500
C1416       C  0.02748114  0.76169701  0.25077925    -0.09500
C1417       C  0.99248019  0.77720599  0.25017699     0.29300
C1418       C  0.96206055  0.75471212  0.24998828    -0.21500
C1419       C  0.96608951  0.71656828  0.25044885    -0.09500
C1420       C  0.00105619  0.70104821  0.25184297     0.29300
F1421       F  0.00589282  0.66429079  0.25174598    -0.20100
H1422       H  0.05838702  0.71112630  0.25244657     0.17700
H1423       H  0.93526897  0.76723860  0.24897920     0.17700
F1424       F  0.98758470  0.81390405  0.24835101    -0.20000
C1425       C  0.13709240  0.84370843  0.39439597    -0.21500
C1426       C  0.10421074  0.85752431  0.40765252    -0.09500
C1427       C  0.07659065  0.86914057  0.38586530     0.29300
C1428       C  0.08143237  0.86583335  0.35169973    -0.21500
C1429       C  0.11336330  0.85024612  0.33874420    -0.09500
C1430       C  0.14151448  0.83970280  0.36013571     0.29300
F1431       F  0.17307274  0.82547414  0.34788951    -0.20100
H1432       H  0.15890176  0.83480541  0.41055617     0.17700
H1433       H  0.05951729  0.87402226  0.33531959     0.17700
F1434       F  0.04455863  0.88294343  0.39745034    -0.20000
C1435       C  0.14415709  0.74953704  0.11822912    -0.21500
C1436       C  0.14421324  0.74056906  0.15202761    -0.09500
C1437       C  0.14049874  0.70343443  0.16096852     0.29300
C1438       C  0.13527720  0.67641959  0.13640965    -0.21500
C1439       C  0.13358726  0.68601666  0.10267662    -0.09500
C1440       C  0.13905147  0.72293058  0.09397304     0.29300
F1441       F  0.13905404  0.73372473  0.06175847    -0.20100
H1442       H  0.14747848  0.77759818  0.11033488     0.17700
H1443       H  0.13114435  0.64832251  0.14384167     0.17700
F1444       F  0.14031641  0.69338351  0.19334792    -0.20000
C1445       C  0.25839126  0.71844584  0.22382021    -0.21500
C1446       C  0.26346918  0.70606618  0.25666987    -0.09500
C1447       C  0.25250043  0.72912114  0.28279538     0.29300
C1448       C  0.23715103  0.76339509  0.27609080    -0.21500
C1449       C  0.23195707  0.77570417  0.24324950    -0.09500
C1450       C  0.24308284  0.75273566  0.21711434     0.29300
F1451       F  0.23798349  0.76265531  0.18504006    -0.20100
H1452       H  0.26731864  0.70180785  0.20305736     0.17700
H1453       H  0.22827894  0.78006651  0.29684977     0.17700
F1454       F  0.25781361  0.71930822  0.31485990    -0.20000
C1455       C  0.27466933  0.60271306  0.02343560    -0.21500
C1456       C  0.28585112  0.58370791  0.99480369    -0.09500
C1457       C  0.25995391  0.56206043  0.97809527     0.29300
C1458       C  0.22304580  0.56183303  0.98867837    -0.21500
C1459       C  0.21168358  0.58307894  0.01605012    -0.09500
C1460       C  0.23824494  0.60245401  0.03393768     0.29300
F1461       F  0.22845410  0.62315350  0.06052576    -0.20100
H1462       H  0.29398143  0.61954348  0.03683621     0.17700
H1463       H  0.20297076  0.54730830  0.97407139     0.17700
F1464       F  0.26952574  0.54392968  0.94999613    -0.20000
C1465       C  0.35772595  0.70314125  0.83695523    -0.21500
C1466       C  0.35104569  0.73965755  0.84663669    -0.09500
C1467       C  0.34756242  0.74729411  0.88073890     0.29300
C1468       C  0.35245788  0.71990694  0.90429406    -0.21500
C1469       C  0.36098948  0.68383399  0.89502593    -0.09500
C1470       C  0.36273805  0.67540253  0.86092138     0.29300
F1471       F  0.37126330  0.64107446  0.85079812    -0.20100
H1472       H  0.36051154  0.69634780  0.81091152     0.17700
H1473       H  0.35027720  0.72731304  0.93026452     0.17700
F1474       F  0.33979961  0.78154510  0.89164151    -0.20000
C1475       C  0.53659994  0.73730821  0.00714487    -0.21500
C1476       C  0.52035080  0.77190093  0.00714206    -0.09500
C1477       C  0.48208043  0.77522963  0.00787839     0.29300
C1478       C  0.46049442  0.74426125  0.00645410    -0.21500
C1479       C  0.47671136  0.70974784  0.00426934    -0.09500
C1480       C  0.51496669  0.70627308  0.00565240     0.29300
F1481       F  0.53152331  0.67307979  0.00508980    -0.20100
H1482       H  0.56604030  0.73428735  0.00694338     0.17700
H1483       H  0.43107471  0.74741487  0.00597892     0.17700
F1484       F  0.46544087  0.80835490  0.00926878    -0.20000
C1485       C  0.36499311  0.65262713  0.10418293    -0.21500
C1486       C  0.39027449  0.62719707  0.09167773    -0.09500
C1487       C  0.41115146  0.60625668  0.11372039     0.29300
C1488       C  0.40682940  0.61090287  0.14779817    -0.21500
C1489       C  0.38249283  0.63720776  0.16034094    -0.09500
C1490       C  0.36146149  0.65805597  0.13832303     0.29300
F1491       F  0.33755514  0.68353033  0.14977032    -0.20100
H1492       H  0.34892643  0.66922119  0.08746736     0.17700
H1493       H  0.42342879  0.59472129  0.16442092     0.17700
F1494       F  0.43576254  0.58141375  0.10233269    -0.20000
C1495       C  0.48946884  0.58647079  0.87128459    -0.21500
C1496       C  0.49793155  0.58845654  0.90511144    -0.09500
C1497       C  0.53503290  0.59209398  0.91425264     0.29300
C1498       C  0.56228024  0.59714705  0.88982618    -0.21500
C1499       C  0.55297593  0.59812605  0.85604625    -0.09500
C1500       C  0.51643452  0.59086690  0.84713389     0.29300
F1501       F  0.50633049  0.58906736  0.81478759    -0.20100
H1502       H  0.46153382  0.58246571  0.86331433     0.17700
H1503       H  0.59018693  0.60212248  0.89738678     0.17700
F1504       F  0.54479349  0.59267459  0.94668673    -0.20000
C1505       C  0.74087778  0.39435098  0.03951416    -0.21500
C1506       C  0.71300610  0.40477981  0.01783624    -0.09500
C1507       C  0.72238330  0.41574777  0.98541325     0.29300
C1508       C  0.75894094  0.41391727  0.97441954    -0.21500
C1509       C  0.78637704  0.40077159  0.99556035    -0.09500
C1510       C  0.77711623  0.39238676  0.02860935     0.29300
F1511       F  0.80278437  0.38000471  0.04994199    -0.20100
H1512       H  0.73418229  0.38507584  0.06431399     0.17700
H1513       H  0.76530155  0.42002403  0.94876393     0.17700
F1514       F  0.69584162  0.42488719  0.96353385    -0.20000
C1515       C  0.63590270  0.25887074  0.09706436    -0.21500
C1516       C  0.63559442  0.29602090  0.10614779    -0.09500
C1517       C  0.64030006  0.30491138  0.13988170     0.29300
C1518       C  0.64334965  0.27698256  0.16384116    -0.21500
C1519       C  0.64181475  0.23978490  0.15459043    -0.09500
C1520       C  0.63891020  0.23128037  0.12062695     0.29300
F1521       F  0.63848481  0.19613666  0.10982825    -0.20100
H1522       H  0.63307765  0.25078972  0.07133614     0.17700
H1523       H  0.64598155  0.28448262  0.18971781     0.17700
F1524       F  0.64061062  0.34030309  0.14987088    -0.20000
C1525       C  0.48468551  0.27938762  0.99926122    -0.21500
C1526       C  0.52281996  0.27484537  0.99863746    -0.09500
C1527       C  0.53781310  0.23961679  0.99810664     0.29300
C1528       C  0.51483518  0.20949306  0.99985049    -0.21500
C1529       C  0.47678032  0.21416545  0.00180522    -0.09500
C1530       C  0.46175604  0.24932224  0.00078810     0.29300
F1531       F  0.42512495  0.25478378  0.00278917    -0.20100
H1532       H  0.47250596  0.30636068  0.99943381     0.17700
H1533       H  0.52687802  0.18246304  0.00012482     0.17700
F1534       F  0.57450261  0.23424289  0.99743883    -0.20000
C1535       C  0.51034849  0.38378798  0.13420291    -0.21500
C1536       C  0.50102113  0.38781923  0.10070952    -0.09500
C1537       C  0.46362972  0.38851135  0.09219228     0.29300
C1538       C  0.43654787  0.38314601  0.11667326    -0.21500
C1539       C  0.44631533  0.37721806  0.14994177    -0.09500
C1540       C  0.48368803  0.37876030  0.15843199     0.29300
F1541       F  0.49492812  0.37503096  0.19032154    -0.20100
H1542       H  0.53867370  0.38394247  0.14186644     0.17700
H1543       H  0.40810020  0.38252046  0.10945570     0.17700
F1544       F  0.45322263  0.39320387  0.06022054    -0.20000
C1545       C  0.52222678  0.48460205  0.97947952    -0.21500
C1546       C  0.53314954  0.47724709  0.01230134    -0.09500
C1547       C  0.50815932  0.48458259  0.03812243     0.29300
C1548       C  0.47352646  0.49901554  0.03103335    -0.21500
C1549       C  0.46268018  0.50630212  0.99813368    -0.09500
C1550       C  0.48749192  0.49842464  0.97237633     0.29300
F1551       F  0.47900966  0.50562507  0.94031759    -0.20100
H1552       H  0.54040561  0.47850390  0.95892100     0.17700
H1553       H  0.45537460  0.50550507  0.05151139     0.17700
F1554       F  0.51649090  0.47662523  0.07008189    -0.20000
C1555       C  0.67752345  0.50483059  0.77128373    -0.21500
C1556       C  0.65544208  0.53056128  0.75491052    -0.09500
C1557       C  0.63704284  0.51953280  0.72594912     0.29300
C1558       C  0.63832036  0.48336703  0.71513072    -0.21500
C1559       C  0.65781213  0.45691235  0.73276411    -0.09500
C1560       C  0.67859174  0.46808812  0.76038078     0.29300
F1561       F  0.69695947  0.44299792  0.77857670    -0.20100
H1562       H  0.69157698  0.51242988  0.79384703     0.17700
H1563       H  0.62184363  0.47542654  0.69403508     0.17700
F1564       F  0.61565767  0.54327018  0.70908779    -0.20000
C1565       C  0.56184772  0.38218053  0.61386214    -0.21500
C1566       C  0.55248463  0.37804251  0.64756967    -0.09500
C1567       C  0.51522197  0.38122954  0.65651430     0.29300
C1568       C  0.48832581  0.38640066  0.63257401    -0.21500
C1569       C  0.49715931  0.38893494  0.59877428    -0.09500
C1570       C  0.53451306  0.38760013  0.58963494     0.29300
F1571       F  0.54459879  0.39021793  0.55730094    -0.20100
H1572       H  0.59012926  0.38007197  0.60613156     0.17700
H1573       H  0.46013763  0.38791631  0.64073254     0.17700
F1574       F  0.50429426  0.37907959  0.68868441    -0.20000
C1575       C  0.53478404  0.22786961  0.76314049    -0.21500
C1576       C  0.53055298  0.26539984  0.75710959    -0.09500
C1577       C  0.49591261  0.27981695  0.75074231     0.29300
C1578       C  0.46610703  0.25663158  0.74901806    -0.21500
C1579       C  0.47038468  0.21883465  0.75375071    -0.09500
C1580       C  0.50485373  0.20461723  0.76165894     0.29300
F1581       F  0.50995492  0.16833942  0.76675051    -0.20100
H1582       H  0.56146867  0.21641776  0.76825403     0.17700
H1583       H  0.43969660  0.26833749  0.74329534     0.17700
F1584       F  0.49114993  0.31585895  0.74421001    -0.20000
C1585       C  0.58834859  0.38477152  0.89014421    -0.21500
C1586       C  0.60996195  0.36408685  0.91176373    -0.09500
C1587       C  0.63634357  0.34007254  0.89860744     0.29300
C1588       C  0.63985837  0.33579328  0.86437155    -0.21500
C1589       C  0.61773718  0.35586967  0.84275659    -0.09500
C1590       C  0.59243360  0.38105848  0.85583953     0.29300
F1591       F  0.57011838  0.40039059  0.83557337    -0.20100
H1592       H  0.56783077  0.40331047  0.89984338     0.17700
H1593       H  0.65939945  0.31619899  0.85471322     0.17700
F1594       F  0.65717391  0.31904489  0.91878786    -0.20000
C1595       C  0.63505855  0.17713118  0.64253639    -0.21500
C1596       C  0.63791570  0.18581715  0.60864890    -0.09500
C1597       C  0.64762173  0.22177912  0.59980659     0.29300
C1598       C  0.65184657  0.24874333  0.62389844    -0.21500
C1599       C  0.64693126  0.24091257  0.65764043    -0.09500
C1600       C  0.63958585  0.20445441  0.66694494     0.29300
F1601       F  0.63470936  0.19563864  0.69933990    -0.20100
H1602       H  0.62754417  0.14976249  0.65002978     0.17700
H1603       H  0.65829290  0.27623146  0.61591859     0.17700
F1604       F  0.65221982  0.23130224  0.56751262    -0.20000
C1605       C  0.85374190  0.98308482  0.71314741    -0.21500
C1606       C  0.83634933  0.95573329  0.73156632    -0.09500
C1607       C  0.81797735  0.96569712  0.76105456     0.29300
C1608       C  0.81886123  0.00221612  0.77255274    -0.21500
C1609       C  0.83858711  0.02900377  0.75502986    -0.09500
C1610       C  0.85498040  0.01906351  0.72462363     0.29300
F1611       F  0.87432246  0.04371825  0.70675279    -0.20100
H1612       H  0.86869513  0.97602208  0.69077114     0.17700
H1613       H  0.80660477  0.00887908  0.79629836     0.17700
F1614       F  0.80233540  0.93962656  0.78028401    -0.20000
C1615       C  0.97834000  0.09708737  0.84662110    -0.21500
C1616       C  0.94151086  0.10167403  0.85584133    -0.09500
C1617       C  0.93254945  0.10037908  0.88984782     0.29300
C1618       C  0.96037429  0.09668168  0.91385700    -0.21500
C1619       C  0.99749277  0.09423973  0.90434098    -0.09500
C1620       C  0.00581581  0.09347666  0.87021330     0.29300
F1621       F  0.04075885  0.08980856  0.85928399    -0.20100
H1622       H  0.98626583  0.09719259  0.82069557     0.17700
H1623       H  0.95299629  0.09703506  0.93989480     0.17700
F1624       F  0.89740082  0.10454861  0.89995453    -0.20000
C1625       C  0.99910754  0.20537519  0.74297063    -0.21500
C1626       C  0.96441684  0.22087256  0.74661995    -0.09500
C1627       C  0.96025990  0.25912531  0.74563405     0.29300
C1628       C  0.99091583  0.28140940  0.74367752    -0.21500
C1629       C  0.02576828  0.26577932  0.74270173    -0.09500
C1630       C  0.02963872  0.22757618  0.74096426     0.29300
F1631       F  0.06299776  0.21156635  0.73830341    -0.20100
H1632       H  0.00280676  0.17602232  0.74290435     0.17700
H1633       H  0.98747770  0.31078071  0.74454024     0.17700
F1634       F  0.92678127  0.27503954  0.74721551    -0.20000
C1635       C  0.85817347  0.15477945  0.63943078    -0.21500
C1636       C  0.88069670  0.13500825  0.66092896    -0.09500
C1637       C  0.90647637  0.11035933  0.64782882     0.29300
C1638       C  0.91023507  0.10632870  0.61363991    -0.21500
C1639       C  0.88790572  0.12618907  0.59207498    -0.09500
C1640       C  0.86138116  0.15012462  0.60516330     0.29300
F1641       F  0.83985218  0.17031579  0.58488369    -0.20100
H1642       H  0.83825895  0.17393009  0.64919204     0.17700
H1643       H  0.93090992  0.08794438  0.60396242     0.17700
F1644       F  0.92929762  0.09151972  0.66801555    -0.20000
C1645       C  0.85848366  0.22676356  0.88409216    -0.21500
C1646       C  0.85029781  0.23660486  0.85134030    -0.09500
C1647       C  0.84644356  0.27410490  0.84388704     0.29300
C1648       C  0.85178293  0.30082883  0.86863525    -0.21500
C1649       C  0.86110814  0.29072678  0.90117257    -0.09500
C1650       C  0.86380984  0.25308950  0.90857383     0.29300
F1651       F  0.87204295  0.24123044  0.93956449    -0.20100
H1652       H  0.86147583  0.19833011  0.89092320     0.17700
H1653       H  0.84943133  0.32940774  0.86214998     0.17700
F1654       F  0.83830761  0.28508263  0.81265508    -0.20000
C1655       C  0.75348594  0.22888343  0.78446766    -0.21500
C1656       C  0.76246486  0.20561779  0.75795767    -0.09500
C1657       C  0.75617242  0.21822734  0.72530250     0.29300
C1658       C  0.74181735  0.25313275  0.71952818    -0.21500
C1659       C  0.73292828  0.27646373  0.74601847    -0.09500
C1660       C  0.73905062  0.26379645  0.77869290     0.29300
F1661       F  0.73060737  0.28505349  0.80528044    -0.20100
H1662       H  0.75916228  0.22073208  0.80974224     0.17700
H1663       H  0.73631592  0.26130553  0.69422652     0.17700
F1664       F  0.76467367  0.19699400  0.69870819    -0.20000
loop_ 
_geom_bond_atom_site_label_1 
_geom_bond_atom_site_label_2 
_geom_bond_distance 
_geom_bond_site_symmetry_2 
_ccdc_geom_bond_type 
O1          Cr19   2.006       .  S
O1            C9   1.264       .  A
O2          Cr19   1.939       .  S
O2            C3   1.239       .  A
C3            O4   1.273       .  A
C3         C1656   1.491       .  S
O4          Cr20   2.070       .  S
O5          Cr20   2.022       .  S
O5            C6   1.272       .  A
C6            O7   1.266       .  A
C6         C1609   1.493       .  S
O7          Cr21   2.001       .  S
O8          Cr21   1.954       .  S
O8            C9   1.254       .  A
C9         C1636   1.465       .  S
O10         Cr19   1.936       .  S
O10          C18   1.251       .  A
O11         Cr19   2.037       .  S
O11          C12   1.273       .  A
C12          O13   1.265       .  A
C12        C1646   1.493       .  S
O13         Cr20   1.972       .  S
O14         Cr20   2.061       .  S
O14          C15   1.279       .  A
C15          O16   1.258       .  A
C15        C1616   1.495       .  S
O16         Cr21   1.950       .  S
O17         Cr21   2.003       .  S
O17          C18   1.266       .  A
C18        C1626   1.459       .  S
Cr19         O22   1.758       .  S
Cr20         O22   1.776       .  S
Cr21         O22   1.753       .  S
O23         Cr41   1.965       .  S
O23          C31   1.257       .  A
O24         Cr41   2.002       .  S
O24          C25   1.267       .  A
C25          O26   1.269       .  A
C25        C1559   1.485       .  S
O26         Cr42   2.016       .  S
O27         Cr42   2.065       .  S
O27          C28   1.272       .  A
C28          O29   1.240       .  A
C28        C1659   1.492       .  S
O29         Cr43   1.941       .  S
O30         Cr43   2.003       .  S
O30          C31   1.266       .  A
C31        C1589   1.469       .  S
O32         Cr41   2.003       .  S
O32          C40   1.265       .  A
O33         Cr41   1.952       .  S
O33          C34   1.256       .  A
C34          O35   1.280       .  A
C34        C1566   1.501       .  S
O35         Cr42   2.068       .  S
O36         Cr42   1.973       .  S
O36          C37   1.266       .  A
C37          O38   1.273       .  A
C37        C1599   1.490       .  S
O38         Cr43   2.038       .  S
O39         Cr43   1.931       .  S
O39          C40   1.250       .  A
C40        C1576   1.454       .  S
Cr41         O44   1.756       .  S
Cr42         O44   1.774       .  S
Cr43         O44   1.758       .  S
O45         Cr63   1.962   1_556  S
O45          C53   1.256       .  A
O46         Cr63   2.001       .  S
O46          C47   1.266       .  A
C47          O48   1.268       .  A
C47        C1506   1.478       .  S
O48         Cr64   2.009       .  S
O49         Cr64   2.064       .  S
O49          C50   1.271       .  A
C50          O51   1.241   1_554  A
C50        C1546   1.489       .  S
O51         Cr65   1.941   1_556  S
O52         Cr65   2.007   1_556  S
O52          C53   1.266       .  A
C53        C1586   1.470       .  S
O54         Cr63   2.008   1_556  S
O54          C62   1.266   1_556  A
O55         Cr63   1.949       .  S
O55          C56   1.257       .  A
C56          O57   1.278       .  A
C56        C1516   1.496       .  S
O57         Cr64   2.058       .  S
O58         Cr64   1.967       .  S
O58          C59   1.264       .  A
C59          O60   1.273       .  A
C59        C1536   1.490       .  S
O60         Cr65   2.038       .  S
O61         Cr65   1.929       .  S
O61          C62   1.251       .  A
C62        C1526   1.460   1_554  S
Cr63         O66   1.756       .  S
Cr64         O66   1.774       .  S
Cr65         O66   1.755       .  S
O67         Cr85   2.000       .  S
O67          C75   1.264       .  A
O68         Cr85   1.943       .  S
O68          C69   1.242   1_554  A
C69          O70   1.273       .  A
C69        C1549   1.488       .  S
O70         Cr86   2.062       .  S
O71         Cr86   2.023       .  S
O71          C72   1.271       .  A
C72          O73   1.264       .  A
C72        C1456   1.491       .  S
O73         Cr87   1.994       .  S
O74         Cr87   1.964   1_554  S
O74          C75   1.257       .  A
C75        C1486   1.465       .  S
O76         Cr85   1.937   1_556  S
O76          C84   1.251       .  A
O77         Cr85   2.029   1_556  S
O77          C78   1.270       .  A
C78          O79   1.267       .  A
C78        C1496   1.492       .  S
O79         Cr86   1.981       .  S
O80         Cr86   2.062       .  S
O80          C81   1.280       .  A
C81          O82   1.258       .  A
C81        C1469   1.496       .  S
O82         Cr87   1.954       .  S
O83         Cr87   1.997   1_554  S
O83          C84   1.264   1_554  A
C84        C1479   1.455   1_556  S
Cr85         O88   1.759   1_554  S
Cr86         O88   1.776       .  S
Cr87         O88   1.758       .  S
O89        Cr107   1.962       .  S
O89          C97   1.256       .  A
O90        Cr107   1.994       .  S
O90          C91   1.264       .  A
C91          O92   1.272       .  A
C91        C1396   1.496       .  S
O92        Cr108   2.028       .  S
O93        Cr108   2.063       .  S
O93          C94   1.272       .  A
C94          O95   1.240       .  A
C94        C1449   1.490       .  S
O95        Cr109   1.940       .  S
O96        Cr109   2.004       .  S
O96          C97   1.265       .  A
C97        C1429   1.461       .  S
O98        Cr107   1.997       .  S
O98         C106   1.263       .  A
O99        Cr107   1.950       .  S
O99         C100   1.257       .  A
C100        O101   1.279       .  A
C100       C1406   1.496       .  S
O101       Cr108   2.060       .  S
O102       Cr108   1.974       .  S
O102        C103   1.266       .  A
C103        O104   1.273       .  A
C103       C1436   1.492       .  S
O104       Cr109   2.035       .  S
O105       Cr109   1.938       .  S
O105        C106   1.252       .  A
C106       C1416   1.457       .  S
Cr107       O110   1.756       .  S
Cr108       O110   1.776       .  S
Cr109       O110   1.757       .  S
O111       Cr129   2.006       .  S
O111        C119   1.264       .  A
O112       Cr129   1.939       .  S
O112        C113   1.240       .  A
C113        O114   1.274       .  A
C113       C1446   1.491       .  S
O114       Cr130   2.070       .  S
O115       Cr130   2.022       .  S
O115        C116   1.272       .  A
C116        O117   1.267       .  A
C116       C1356   1.494       .  S
O117       Cr131   2.002       .  S
O118       Cr131   1.955       .  S
O118        C119   1.254       .  A
C119       C1489   1.466       .  S
O120       Cr129   1.931       .  S
O120        C128   1.251       .  A
O121       Cr129   2.035       .  S
O121        C122   1.272       .  A
C122        O123   1.267       .  A
C122       C1389   1.497       .  S
O123       Cr130   1.983       .  S
O124       Cr130   2.060       .  S
O124        C125   1.279       .  A
C125        O126   1.256       .  A
C125       C1366   1.493       .  S
O126       Cr131   1.947       .  S
O127       Cr131   2.005       .  S
O127        C128   1.266       .  A
C128       C1376   1.459       .  S
Cr129       O132   1.757       .  S
Cr130       O132   1.775       .  S
Cr131       O132   1.754       .  S
O133       Cr151   2.008       .  S
O133        C141   1.268       .  A
O134       Cr151   1.941       .  S
O134        C135   1.243       .  A
C135        O136   1.273       .  A
C135       C1346   1.486       .  S
O136       Cr152   2.056       .  S
O137       Cr152   2.018       .  S
O137        C138   1.269       .  A
C138        O139   1.265       .  A
C138       C1316   1.484       .  S
O139       Cr153   1.999       .  S
O140       Cr153   1.959       .  S
O140        C141   1.257       .  A
C141       C1639   1.466       .  S
O142       Cr151   1.931       .  S
O142        C150   1.251       .  A
O143       Cr151   2.039       .  S
O143        C144   1.273       .  A
C144        O145   1.265       .  A
C144       C1339   1.498       .  S
O145       Cr152   1.979       .  S
O146       Cr152   2.062       .  S
O146        C147   1.279       .  A
C147        O148   1.255       .  A
C147       C1306   1.492       .  S
O148       Cr153   1.940       .  S
O149       Cr153   2.002       .  S
O149        C150   1.263       .  A
C150       C1329   1.454       .  S
Cr151       O154   1.755       .  S
Cr152       O154   1.770       .  S
Cr153       O154   1.758       .  S
O155       Cr173   1.966       .  S
O155        C163   1.257       .  A
O156       Cr173   1.998       .  S
O156        C157   1.266       .  A
C157        O158   1.269       .  A
C157       C1276   1.486       .  S
O158       Cr174   2.013       .  S
O159       Cr174   2.055       .  S
O159        C160   1.272       .  A
C160        O161   1.243       .  A
C160       C1349   1.485       .  S
O161       Cr175   1.943       .  S
O162       Cr175   2.005       .  S
O162        C163   1.265       .  A
C163       C1426   1.476       .  S
O164       Cr173   2.011       .  S
O164        C172   1.267       .  A
O165       Cr173   1.952       .  S
O165        C166   1.258       .  A
C166        O167   1.277       .  A
C166       C1269   1.488       .  S
O167       Cr174   2.050       .  S
O168       Cr174   1.977       .  S
O168        C169   1.265       .  A
C169        O170   1.271       .  A
C169       C1296   1.490   1_455  S
O170       Cr175   2.029       .  S
O171       Cr175   1.936       .  S
O171        C172   1.251       .  A
C172       C1286   1.463       .  S
Cr173       O176   1.758       .  S
Cr174       O176   1.775       .  S
Cr175       O176   1.757       .  S
O177       Cr195   2.003       .  S
O177        C185   1.266       .  A
O178       Cr195   1.941       .  S
O178        C179   1.242       .  A
C179        O180   1.272       .  A
C179       C1256   1.486       .  S
O180       Cr196   2.058       .  S
O181       Cr196   2.015       .  S
O181        C182   1.269       .  A
C182        O183   1.266       .  A
C182       C1216   1.484       .  S
O183       Cr197   2.004       .  S
O184       Cr197   1.958       .  S
O184        C185   1.257       .  A
C185       C1239   1.464       .  S
O186       Cr195   1.930       .  S
O186        C194   1.250       .  A
O187       Cr195   2.035       .  S
O187        C188   1.272       .  A
C188        O189   1.264       .  A
C188       C1246   1.491       .  S
O189       Cr196   1.970       .  S
O190       Cr196   2.055       .  S
O190        C191   1.278       .  A
C191        O192   1.256       .  A
C191       C1229   1.493       .  S
O192       Cr197   1.948       .  S
O193       Cr197   2.011       .  S
O193        C194   1.266       .  A
C194       C1629   1.458       .  S
Cr195       O198   1.755       .  S
Cr196       O198   1.769       .  S
Cr197       O198   1.758       .  S
O199       Cr217   1.968       .  S
O199        C207   1.256       .  A
O200       Cr217   1.991       .  S
O200        C201   1.263       .  A
C201        O202   1.271       .  A
C201       C1176   1.494       .  S
O202       Cr218   2.028       .  S
O203       Cr218   2.060       .  S
O203        C204   1.275       .  A
C204        O205   1.245       .  A
C204       C1259   1.484       .  S
O205       Cr219   1.943       .  S
O206       Cr219   2.001       .  S
O206        C207   1.263       .  A
C207       C1196   1.462       .  S
O208       Cr217   2.013       .  S
O208        C216   1.267       .  A
O209       Cr217   1.949       .  S
O209        C210   1.258       .  A
C210        O211   1.279       .  A
C210       C1186   1.489       .  S
O211       Cr218   2.054       .  S
O212       Cr218   1.990       .  S
O212        C213   1.267       .  A
C213        O214   1.268       .  A
C213       C1206   1.496       .  S
O214       Cr219   2.024       .  S
O215       Cr219   1.934       .  S
O215        C216   1.252       .  A
C216       C1579   1.461       .  S
Cr217       O220   1.757       .  S
Cr218       O220   1.769       .  S
Cr219       O220   1.756       .  S
O221       Cr239   1.960       .  S
O221        C229   1.256       .  A
O222       Cr239   2.006       .  S
O222        C223   1.266       .  A
C223        O224   1.270       .  A
C223       C1126   1.487       .  S
O224       Cr240   2.018       .  S
O225       Cr240   2.059       .  S
O225        C226   1.272       .  A
C226        O227   1.242       .  A
C226       C1169   1.489       .  S
O227       Cr241   1.943       .  S
O228       Cr241   2.007       .  S
O228        C229   1.267       .  A
C229       C1149   1.464       .  S
O230       Cr239   2.009       .  S
O230        C238   1.266       .  A
O231       Cr239   1.943       .  S
O231        C232   1.256       .  A
C232        O233   1.279       .  A
C232       C1136   1.496       .  S
O233       Cr240   2.062       .  S
O234       Cr240   1.981       .  S
O234        C235   1.266       .  A
C235        O236   1.273       .  A
C235       C1156   1.494       .  S
O236       Cr241   2.038       .  S
O237       Cr241   1.932       .  S
O237        C238   1.250       .  A
C238       C1289   1.460       .  S
Cr239       O242   1.761       .  S
Cr240       O242   1.775       .  S
Cr241       O242   1.757       .  S
O243       Cr261   1.999       .  S
O243        C251   1.264       .  A
O244       Cr261   1.944       .  S
O244        C245   1.242       .  A
C245        O246   1.271       .  A
C245       C1166   1.488       .  S
O246       Cr262   2.057       .  S
O247       Cr262   2.026       .  S
O247        C248   1.272       .  A
C248        O249   1.265       .  A
C248       C1106   1.494       .  S
O249       Cr263   1.995       .  S
O250       Cr263   1.958       .  S
O250        C251   1.255       .  A
C251       C1236   1.462       .  S
O252       Cr261   1.935       .  S
O252        C260   1.251       .  A
O253       Cr261   2.025       .  S
O253        C254   1.271       .  A
C254        O255   1.269       .  A
C254       C1116   1.488   1_455  S
O255       Cr262   1.984       .  S
O256       Cr262   2.058       .  S
O256        C257   1.278       .  A
C257        O258   1.257       .  A
C257       C1099   1.491       .  S
O258       Cr263   1.954       .  S
O259       Cr263   1.997       .  S
O259        C260   1.264       .  A
C260       C1326   1.458       .  S
Cr261       O264   1.759       .  S
Cr262       O264   1.777       .  S
Cr263       O264   1.758       .  S
O265       Cr283   2.010       .  S
O265        C273   1.266       .  A
O266       Cr283   1.938       .  S
O266        C267   1.240   1_554  A
C267        O268   1.271       .  A
C267       C1086   1.490       .  S
O268       Cr284   2.061       .  S
O269       Cr284   2.029       .  S
O269        C270   1.273       .  A
C270        O271   1.265       .  A
C270       C1049   1.494       .  S
O271       Cr285   1.995       .  S
O272       Cr285   1.954   1_554  S
O272        C273   1.254       .  A
C273       C1066   1.468       .  S
O274       Cr283   1.932   1_556  S
O274        C282   1.251   1_556  A
O275       Cr283   2.044   1_556  S
O275        C276   1.274       .  A
C276        O277   1.266       .  A
C276       C1076   1.496       .  S
O277       Cr284   1.980       .  S
O278       Cr284   2.051       .  S
O278        C279   1.277       .  A
C279        O280   1.257       .  A
C279       C1056   1.489       .  S
O280       Cr285   1.949       .  S
O281       Cr285   1.998   1_554  S
O281        C282   1.263       .  A
C282       C1476   1.454       .  S
Cr283       O286   1.757   1_554  S
Cr284       O286   1.776       .  S
Cr285       O286   1.756       .  S
O287       Cr305   1.963   1_556  S
O287        C295   1.254       .  A
O288       Cr305   1.992       .  S
O288        C289   1.263       .  A
C289        O290   1.270       .  A
C289       C1019   1.497       .  S
O290       Cr306   2.031       .  S
O291       Cr306   2.053       .  S
O291        C292   1.273       .  A
C292        O293   1.245   1_554  A
C292       C1089   1.486       .  S
O293       Cr307   1.945   1_556  S
O294       Cr307   2.006   1_556  S
O294        C295   1.264       .  A
C295       C1199   1.452       .  S
O296       Cr305   2.006   1_556  S
O296        C304   1.265   1_556  A
O297       Cr305   1.946       .  S
O297        C298   1.258       .  A
C298        O299   1.280       .  A
C298       C1026   1.489       .  S
O299       Cr306   2.059       .  S
O300       Cr306   1.984       .  S
O300        C301   1.267       .  A
C301        O302   1.270       .  A
C301       C1036   1.494       .  S
O302       Cr307   2.027       .  S
O303       Cr307   1.940       .  S
O303        C304   1.252       .  A
C304       C1529   1.458       .  S
Cr305       O308   1.753       .  S
Cr306       O308   1.771       .  S
Cr307       O308   1.758       .  S
O309       Cr327   1.952       .  S
O309        C317   1.255       .  A
O310       Cr327   1.999       .  S
O310        C311   1.265       .  A
C311        O312   1.273       .  A
C311        C976   1.492       .  S
O312       Cr328   2.026       .  S
O313       Cr328   2.072       .  S
O313        C314   1.275       .  A
C314        O315   1.242       .  A
C314       C1006   1.492       .  S
O315       Cr329   1.940       .  S
O316       Cr329   2.012       .  S
O316        C317   1.267       .  A
C317       C1146   1.470       .  S
O318       Cr327   2.003       .  S
O318        C326   1.264       .  A
O319       Cr327   1.939       .  S
O319        C320   1.256       .  A
C320        O321   1.280       .  A
C320        C989   1.500       .  S
O321       Cr328   2.066       .  S
O322       Cr328   1.975       .  S
O322        C323   1.264       .  A
C323        O324   1.273       .  A
C323        C996   1.494       .  S
O324       Cr329   2.035       .  S
O325       Cr329   1.933       .  S
O325        C326   1.250       .  A
C326       C1419   1.458       .  S
Cr327       O330   1.754       .  S
Cr328       O330   1.774       .  S
Cr329       O330   1.758       .  S
O331       Cr349   2.004       .  S
O331        C339   1.266       .  A
O332       Cr349   1.944       .  S
O332        C333   1.243       .  A
C333        O334   1.273       .  A
C333       C1009   1.491       .  S
O334       Cr350   2.063       .  S
O335       Cr350   2.010       .  S
O335        C336   1.269       .  A
C336        O337   1.265       .  A
C336        C946   1.479       .  S
O337       Cr351   2.002       .  S
O338       Cr351   1.962       .  S
O338        C339   1.256       .  A
C339       C1069   1.467       .  S
O340       Cr349   1.923       .  S
O340        C348   1.249       .  A
O341       Cr349   2.035       .  S
O341        C342   1.272       .  A
C342        O343   1.265       .  A
C342        C966   1.492       .  S
O343       Cr350   1.977       .  S
O344       Cr350   2.052       .  S
O344        C345   1.277       .  A
C345        O346   1.256       .  A
C345        C956   1.484       .  S
O346       Cr351   1.949       .  S
O347       Cr351   2.010       .  S
O347        C348   1.266       .  A
C348       C1379   1.454       .  S
Cr349       O352   1.756       .  S
Cr350       O352   1.771       .  S
Cr351       O352   1.764       .  S
O353       Cr371   2.003       .  S
O353        C361   1.266       .  A
O354       Cr371   1.941       .  S
O354        C355   1.242   1_556  A
C355        O356   1.272       .  A
C355        C936   1.489       .  S
O356       Cr372   2.058       .  S
O357       Cr372   2.017       .  S
O357        C358   1.270       .  A
C358        O359   1.267       .  A
C358       C1046   1.485       .  S
O359       Cr373   2.003       .  S
O360       Cr373   1.958   1_556  S
O360        C361   1.256       .  A
C361        C926   1.462       .  S
O362       Cr371   1.927   1_554  S
O362        C370   1.251   1_554  A
O363       Cr371   2.045   1_554  S
O363        C364   1.274       .  A
C364        O365   1.265       .  A
C364       C1409   1.491       .  S
O365       Cr372   1.973       .  S
O366       Cr372   2.053       .  S
O366        C367   1.277       .  A
C367        O368   1.258       .  A
C367        C999   1.493       .  S
O368       Cr373   1.953       .  S
O369       Cr373   2.012   1_556  S
O369        C370   1.266       .  A
C370        C916   1.462       .  S
Cr371       O374   1.756   1_556  S
Cr372       O374   1.769       .  S
Cr373       O374   1.759       .  S
O375       Cr393   1.962   1_554  S
O375        C383   1.258       .  A
O376       Cr393   1.995       .  S
O376        C377   1.265       .  A
C377        O378   1.271       .  A
C377       C1016   1.492       .  S
O378       Cr394   2.026       .  S
O379       Cr394   2.059       .  S
O379        C380   1.272       .  A
C380        O381   1.242   1_556  A
C380        C939   1.488       .  S
O381       Cr395   1.940       .  S
O382       Cr395   2.009       .  S
O382        C383   1.268       .  A
C383        C909   1.468       .  S
O384       Cr393   2.005   1_554  S
O384        C392   1.264       .  A
O385       Cr393   1.948       .  S
O385        C386   1.257       .  A
C386        O387   1.279       .  A
C386       C1249   1.492       .  S
O387       Cr394   2.055       .  S
O388       Cr394   1.976       .  S
O388        C389   1.265       .  A
C389        O390   1.274       .  A
C389       C1619   1.498   1_455  S
O390       Cr395   2.042   1_556  S
O391       Cr395   1.937   1_556  S
O391        C392   1.251   1_556  A
C392        C896   1.459       .  S
Cr393       O396   1.756       .  S
Cr394       O396   1.772       .  S
Cr395       O396   1.755   1_554  S
O397       Cr415   1.964       .  S
O397        C405   1.257       .  A
O398       Cr415   1.997       .  S
O398        C399   1.266       .  A
C399        O400   1.270       .  A
C399       C1399   1.489       .  S
O400       Cr416   2.023       .  S
O401       Cr416   2.063       .  S
O401        C402   1.273       .  A
C402        O403   1.240       .  A
C402        C886   1.491       .  S
O403       Cr417   1.941       .  S
O404       Cr417   2.005       .  S
O404        C405   1.266       .  A
C405        C906   1.469       .  S
O406       Cr415   2.008       .  S
O406        C414   1.266       .  A
O407       Cr415   1.954       .  S
O407        C408   1.259       .  A
C408        O409   1.280       .  A
C408       C1336   1.497       .  S
O409       Cr416   2.064       .  S
O410       Cr416   1.979       .  S
O410        C411   1.266       .  A
C411        O412   1.272       .  A
C411       C1096   1.492       .  S
O412       Cr417   2.034       .  S
O413       Cr417   1.930       .  S
O413        C414   1.250       .  A
C414        C879   1.460       .  S
Cr415       O418   1.756       .  S
Cr416       O418   1.773       .  S
Cr417       O418   1.756       .  S
O419       Cr437   2.006       .  S
O419        C427   1.267       .  A
O420       Cr437   1.939       .  S
O420        C421   1.240       .  A
C421        O422   1.271       .  A
C421        C889   1.492       .  S
O422       Cr438   2.063       .  S
O423       Cr438   2.019       .  S
O423        C424   1.271       .  A
C424        O425   1.266       .  A
C424       C1359   1.487       .  S
O425       Cr439   2.005       .  S
O426       Cr439   1.954       .  S
O426        C427   1.255       .  A
C427        C869   1.460       .  S
O428       Cr437   1.932       .  S
O428        C436   1.251       .  A
O429       Cr437   2.042       .  S
O429        C430   1.274       .  A
C430        O431   1.265       .  A
C430       C1029   1.492       .  S
O431       Cr438   1.973       .  S
O432       Cr438   2.059       .  S
O432        C433   1.278       .  A
C433        O434   1.256       .  A
C433       C1539   1.491       .  S
O434       Cr439   1.945       .  S
O435       Cr439   2.005       .  S
O435        C436   1.265       .  A
C436        C856   1.457       .  S
Cr437       O440   1.756       .  S
Cr438       O440   1.772       .  S
Cr439       O440   1.756       .  S
O441       Cr459   1.956       .  S
O441        C449   1.254       .  A
O442       Cr459   2.005       .  S
O442        C443   1.267       .  A
C443        O444   1.270       .  A
C443       C1129   1.490       .  S
O444       Cr460   2.016       .  S
O445       Cr460   2.064       .  S
O445        C446   1.274       .  A
C446        O447   1.242       .  A
C446        C849   1.490       .  S
O447       Cr461   1.940       .  S
O448       Cr461   2.003       .  S
O448        C449   1.264       .  A
C449        C836   1.463       .  S
O450       Cr459   2.010       .  S
O450        C458   1.267       .  A
O451       Cr459   1.947       .  S
O451        C452   1.256       .  A
C452        O453   1.279       .  A
C452        C969   1.491       .  S
O453       Cr460   2.056       .  S
O454       Cr460   1.979       .  S
O454        C455   1.266       .  A
C455        O456   1.271       .  A
C455       C1369   1.494       .  S
O456       Cr461   2.035       .  S
O457       Cr461   1.931       .  S
O457        C458   1.251       .  A
C458        C826   1.461       .  S
Cr459       O462   1.761       .  S
Cr460       O462   1.773       .  S
Cr461       O462   1.757       .  S
O463       Cr481   2.003       .  S
O463        C471   1.266       .  A
O464       Cr481   1.940       .  S
O464        C465   1.241       .  A
C465        O466   1.273       .  A
C465        C846   1.491       .  S
O466       Cr482   2.066       .  S
O467       Cr482   2.028       .  S
O467        C468   1.271       .  A
C468        O469   1.264       .  A
C468       C1109   1.491       .  S
O469       Cr483   1.996       .  S
O470       Cr483   1.961       .  S
O470        C471   1.257       .  A
C471        C866   1.467       .  S
O472       Cr481   1.933       .  S
O472        C480   1.251       .  A
O473       Cr481   2.040       .  S
O473        C474   1.273       .  A
C474        O475   1.267       .  A
C474       C1569   1.499       .  S
O475       Cr482   1.981       .  S
O476       Cr482   2.064       .  S
O476        C477   1.281       .  A
C477        O478   1.257       .  A
C477       C1209   1.497       .  S
O478       Cr483   1.946       .  S
O479       Cr483   2.000       .  S
O479        C480   1.264       .  A
C480        C816   1.450       .  S
Cr481       O484   1.757       .  S
Cr482       O484   1.770       .  S
Cr483       O484   1.755       .  S
O485       Cr503   1.999       .  S
O485        C493   1.265       .  A
O486       Cr503   1.938       .  S
O486        C487   1.239       .  A
C487        O488   1.272       .  A
C487        C806   1.488       .  S
O488       Cr504   2.063       .  S
O489       Cr504   2.019       .  S
O489        C490   1.271       .  A
C490        O491   1.266       .  A
C490       C1606   1.485       .  S
O491       Cr505   2.000       .  S
O492       Cr505   1.960       .  S
O492        C493   1.256       .  A
C493        C929   1.465       .  S
O494       Cr503   1.928       .  S
O494        C502   1.250       .  A
O495       Cr503   2.042       .  S
O495        C496   1.273       .  A
C496        O497   1.265       .  A
C496       C1139   1.494       .  S
O497       Cr504   1.974       .  S
O498       Cr504   2.056       .  S
O498        C499   1.278       .  A
C499        O500   1.258       .  A
C499       C1299   1.490       .  S
O500       Cr505   1.950       .  S
O501       Cr505   2.005       .  S
O501        C502   1.266       .  A
C502        C796   1.451       .  S
Cr503       O506   1.755       .  S
Cr504       O506   1.769       .  S
Cr505       O506   1.756       .  S
O507       Cr525   1.954       .  S
O507        C515   1.254       .  A
O508       Cr525   1.998       .  S
O508        C509   1.266       .  A
C509        O510   1.271       .  A
C509       C1556   1.491       .  S
O510       Cr526   2.020       .  S
O511       Cr526   2.065       .  S
O511        C512   1.274       .  A
C512        O513   1.241       .  A
C512        C809   1.487       .  S
O513       Cr527   1.941       .  S
O514       Cr527   2.005       .  S
O514        C515   1.265       .  A
C515        C839   1.463       .  S
O516       Cr525   2.001       .  S
O516        C524   1.264       .  A
O517       Cr525   1.946       .  S
O517        C518   1.256       .  A
C518        O519   1.279       .  A
C518       C1499   1.491       .  S
O519       Cr526   2.062       .  S
O520       Cr526   1.979       .  S
O520        C521   1.266       .  A
C521        O522   1.271       .  A
C521       C1059   1.492       .  S
O522       Cr527   2.030       .  S
O523       Cr527   1.936       .  S
O523        C524   1.251       .  A
C524        C786   1.459       .  S
Cr525       O528   1.754       .  S
Cr526       O528   1.773       .  S
Cr527       O528   1.757       .  S
O529       Cr547   1.952       .  S
O529        C537   1.254       .  A
O530       Cr547   2.008       .  S
O530        C531   1.267       .  A
C531        O532   1.269       .  A
C531        C979   1.486       .  S
O532       Cr548   2.015       .  S
O533       Cr548   2.057       .  S
O533        C534   1.273       .  A
C534        O535   1.244       .  A
C534        C776   1.486       .  S
O535       Cr549   1.945       .  S
O536       Cr549   2.003       .  S
O536        C537   1.266       .  A
C537        C766   1.461       .  S
O538       Cr547   2.013       .  S
O538        C546   1.266       .  A
O539       Cr547   1.945       .  S
O539        C540   1.255       .  A
C540        O541   1.279       .  A
C540       C1119   1.488       .  S
O541       Cr548   2.060       .  S
O542       Cr548   1.976       .  S
O542        C543   1.265       .  A
C543        O544   1.271       .  A
C543       C1309   1.494       .  S
O544       Cr549   2.033       .  S
O545       Cr549   1.931       .  S
O545        C546   1.250       .  A
C546        C876   1.458       .  S
Cr547       O550   1.759       .  S
Cr548       O550   1.766       .  S
Cr549       O550   1.757       .  S
O551       Cr569   2.008       .  S
O551        C559   1.266       .  A
O552       Cr569   1.941       .  S
O552        C553   1.242       .  A
C553        O554   1.272       .  A
C553        C779   1.488       .  S
O554       Cr570   2.062       .  S
O555       Cr570   2.008       .  S
O555        C556   1.269       .  A
C556        O557   1.267       .  A
C556        C949   1.482       .  S
O557       Cr571   2.004       .  S
O558       Cr571   1.958       .  S
O558        C559   1.255       .  A
C559        C756   1.467       .  S
O560       Cr569   1.929       .  S
O560        C568   1.251       .  A
O561       Cr569   2.043       .  S
O561        C562   1.274       .  A
C562        O563   1.265       .  A
C562       C1519   1.496       .  S
O563       Cr570   1.973       .  S
O564       Cr570   2.057       .  S
O564        C565   1.278       .  A
C565        O566   1.256       .  A
C565       C1039   1.495       .  S
O566       Cr571   1.951       .  S
O567       Cr571   2.007       .  S
O567        C568   1.265       .  A
C568        C859   1.459       .  S
Cr569       O572   1.755       .  S
Cr570       O572   1.774       .  S
Cr571       O572   1.761       .  S
O573       Cr591   1.948   1_554  S
O573        C581   1.252       .  A
O574       Cr591   2.005       .  S
O574        C575   1.268       .  A
C575        O576   1.268       .  A
C575       C1509   1.485       .  S
O576       Cr592   2.007       .  S
O577       Cr592   2.060       .  S
O577        C578   1.271       .  A
C578        O579   1.240   1_556  A
C578        C746   1.486       .  S
O579       Cr593   1.940       .  S
O580       Cr593   2.002       .  S
O580        C581   1.263       .  A
C581        C769   1.457       .  S
O582       Cr591   2.006   1_554  S
O582        C590   1.267       .  A
O583       Cr591   1.947       .  S
O583        C584   1.255       .  A
C584        O585   1.278       .  A
C584       C1649   1.494       .  S
O585       Cr592   2.055       .  S
O586       Cr592   1.969       .  S
O586        C587   1.265       .  A
C587        O588   1.273       .  A
C587       C1226   1.491       .  S
O588       Cr593   2.039   1_556  S
O589       Cr593   1.936   1_556  S
O589        C590   1.252   1_556  A
C590        C899   1.460       .  S
Cr591       O594   1.753       .  S
Cr592       O594   1.775       .  S
Cr593       O594   1.757   1_554  S
O595       Cr613   2.001       .  S
O595        C603   1.265       .  A
O596       Cr613   1.939       .  S
O596        C597   1.240   1_556  A
C597        O598   1.272       .  A
C597        C749   1.486       .  S
O598       Cr614   2.058       .  S
O599       Cr614   2.017       .  S
O599        C600   1.270       .  A
C600        O601   1.267       .  A
C600       C1459   1.489       .  S
O601       Cr615   2.006       .  S
O602       Cr615   1.962   1_556  S
O602        C603   1.258       .  A
C603        C736   1.463       .  S
O604       Cr613   1.939   1_554  S
O604        C612   1.252   1_554  A
O605       Cr613   2.043   1_554  S
O605        C606   1.273       .  A
C606        O607   1.264       .  A
C606        C986   1.497   1_455  S
O607       Cr614   1.970       .  S
O608       Cr614   2.057       .  S
O608        C609   1.278       .  A
C609        O610   1.257       .  A
C609       C1439   1.491       .  S
O610       Cr615   1.949       .  S
O611       Cr615   2.004   1_556  S
O611        C612   1.266       .  A
C612        C919   1.458       .  S
Cr613       O616   1.758   1_556  S
Cr614       O616   1.771       .  S
Cr615       O616   1.754       .  S
O617       Cr635   2.007       .  S
O617        C625   1.265       .  A
O618       Cr635   1.941       .  S
O618        C619   1.242       .  A
C619        O620   1.273       .  A
C619        C729   1.490       .  S
O620       Cr636   2.063       .  S
O621       Cr636   2.019       .  S
O621        C622   1.271       .  A
C622        O623   1.266       .  A
C622       C1319   1.490       .  S
O623       Cr637   2.001       .  S
O624       Cr637   1.958       .  S
O624        C625   1.255       .  A
C625        C759   1.469       .  S
O626       Cr635   1.934       .  S
O626        C634   1.251       .  A
O627       Cr635   2.030       .  S
O627        C628   1.271       .  A
C628        O629   1.266       .  A
C628       C1189   1.491       .  S
O629       Cr636   1.981       .  S
O630       Cr636   2.058       .  S
O630        C631   1.278       .  A
C631        O632   1.257       .  A
C631       C1596   1.490       .  S
O632       Cr637   1.949       .  S
O633       Cr637   2.003       .  S
O633        C634   1.264       .  A
C634        C819   1.461       .  S
Cr635       O638   1.757       .  S
Cr636       O638   1.776       .  S
Cr637       O638   1.758       .  S
O639       Cr657   1.961       .  S
O639        C647   1.256       .  A
O640       Cr657   2.000       .  S
O640        C641   1.266       .  A
C641        O642   1.269       .  A
C641       C1279   1.482       .  S
O642       Cr658   2.015       .  S
O643       Cr658   2.061       .  S
O643        C644   1.271       .  A
C644        O645   1.241       .  A
C644        C726   1.491       .  S
O645       Cr659   1.942       .  S
O646       Cr659   2.004       .  S
O646        C647   1.265       .  A
C647        C716   1.467       .  S
O648       Cr657   2.003       .  S
O648        C656   1.265       .  A
O649       Cr657   1.952       .  S
O649        C650   1.257       .  A
C650        O651   1.279       .  A
C650       C1386   1.498       .  S
O651       Cr658   2.064       .  S
O652       Cr658   1.976       .  S
O652        C653   1.266       .  A
C653        O654   1.273       .  A
C653        C959   1.484       .  S
O654       Cr659   2.032       .  S
O655       Cr659   1.933       .  S
O655        C656   1.250       .  A
C656        C829   1.456       .  S
Cr657       O660   1.756       .  S
Cr658       O660   1.775       .  S
Cr659       O660   1.758       .  S
O661       Cr679   1.963       .  S
O661        C669   1.257       .  A
O662       Cr679   2.001       .  S
O662        C663   1.266       .  A
C663        O664   1.271       .  A
C663       C1179   1.490       .  S
O664       Cr680   2.023       .  S
O665       Cr680   2.066       .  S
O665        C666   1.273       .  A
C666        O667   1.241       .  A
C666        C706   1.490       .  S
O667       Cr681   1.940       .  S
O668       Cr681   2.007       .  S
O668        C669   1.267       .  A
C669        C719   1.469       .  S
O670       Cr679   2.004       .  S
O670        C678   1.264       .  A
O671       Cr679   1.953       .  S
O671        C672   1.258       .  A
C672        O673   1.280       .  A
C672       C1079   1.498       .  S
O673       Cr680   2.063       .  S
O674       Cr680   1.976       .  S
O674        C675   1.265       .  A
C675        O676   1.275       .  A
C675       C1466   1.498       .  S
O676       Cr681   2.046       .  S
O677       Cr681   1.927       .  S
O677        C678   1.250       .  A
C678        C789   1.453       .  S
Cr679       O682   1.759       .  S
Cr680       O682   1.770       .  S
Cr681       O682   1.757       .  S
O683       Cr701   2.003       .  S
O683        C691   1.264       .  A
O684       Cr701   1.943       .  S
O684        C685   1.242       .  A
C685        O686   1.274       .  A
C685        C709   1.489       .  S
O686       Cr702   2.066       .  S
O687       Cr702   2.018       .  S
O687        C688   1.271       .  A
C688        O689   1.267       .  A
C688       C1219   1.490       .  S
O689       Cr703   2.002       .  S
O690       Cr703   1.957       .  S
O690        C691   1.255       .  A
C691        C739   1.466       .  S
O692       Cr701   1.927       .  S
O692        C700   1.249       .  A
O693       Cr701   2.029       .  S
O693        C694   1.270       .  A
C694        O695   1.265       .  A
C694       C1266   1.491       .  S
O695       Cr702   1.978       .  S
O696       Cr702   2.057       .  S
O696        C697   1.279       .  A
C697        O698   1.258       .  A
C697       C1159   1.492       .  S
O698       Cr703   1.956       .  S
O699       Cr703   2.009       .  S
O699        C700   1.266       .  A
C700        C799   1.460       .  S
Cr701       O704   1.759       .  S
Cr702       O704   1.772       .  S
Cr703       O704   1.761       .  S
C705        C706   1.405       .  A
C705        C710   1.404       .  A
C705        H712   1.082       .  S
C706        C707   1.414       .  A
C707        C708   1.402       .  A
C707        F714   1.358       .  S
C708        C709   1.404       .  A
C708        H713   1.082       .  S
C709        C710   1.413       .  A
C710        F711   1.358       .  S
C715        C716   1.404       .  A
C715        C720   1.394       .  A
C715        H722   1.083       .  S
C716        C717   1.404       .  A
C717        C718   1.395       .  A
C717        F724   1.358       .  S
C718        C719   1.405       .  A
C718        H723   1.083       .  S
C719        C720   1.404       .  A
C720        F721   1.358       .  S
C725        C726   1.412       .  A
C725        C730   1.401   1_565  A
C725        H732   1.083       .  S
C726        C727   1.407       .  A
C727        C728   1.403   1_565  A
C727        F734   1.357       .  S
C728        C729   1.412       .  A
C728        H733   1.083       .  S
C729        C730   1.406       .  A
C730        F731   1.357       .  S
C735        C736   1.403       .  A
C735        C740   1.394       .  A
C735        H742   1.084       .  S
C736        C737   1.403       .  A
C737        C738   1.393       .  A
C737        F744   1.358       .  S
C738        C739   1.404       .  A
C738        H743   1.083       .  S
C739        C740   1.404       .  A
C740        F741   1.358       .  S
C745        C746   1.413   1_554  A
C745        C750   1.399   1_655  A
C745        H752   1.084       .  S
C746        C747   1.405       .  A
C747        C748   1.401   1_655  A
C747        F754   1.357       .  S
C748        C749   1.414   1_556  A
C748        H753   1.083       .  S
C749        C750   1.404       .  A
C750        F751   1.357       .  S
C755        C756   1.401       .  A
C755        C760   1.395       .  A
C755        H762   1.084       .  S
C756        C757   1.407       .  A
C757        C758   1.395       .  A
C757        F764   1.358       .  S
C758        C759   1.402       .  A
C758        H763   1.084       .  S
C759        C760   1.408       .  A
C760        F761   1.357       .  S
C765        C766   1.400       .  A
C765        C770   1.389       .  A
C765        H772   1.084       .  S
C766        C767   1.408       .  A
C767        C768   1.393       .  A
C767        F774   1.358       .  S
C768        C769   1.399       .  A
C768        H773   1.084       .  S
C769        C770   1.405       .  A
C770        F771   1.358       .  S
C775        C776   1.403       .  A
C775        C780   1.400       .  A
C775        H782   1.083       .  S
C776        C777   1.413       .  A
C777        C778   1.404       .  A
C777        F784   1.358       .  S
C778        C779   1.405       .  A
C778        H783   1.083       .  S
C779        C780   1.413       .  A
C780        F781   1.358       .  S
C785        C786   1.407       .  A
C785        C790   1.387       .  A
C785        H792   1.083       .  S
C786        C787   1.403       .  A
C787        C788   1.386       .  A
C787        F794   1.358       .  S
C788        C789   1.404       .  A
C788        H793   1.084       .  S
C789        C790   1.399       .  A
C790        F791   1.358       .  S
C795        C796   1.395       .  A
C795        C800   1.385   1_655  A
C795        H802   1.084   1_655  S
C796        C797   1.406       .  A
C797        C798   1.388       .  A
C797        F804   1.358       .  S
C798        C799   1.400   1_655  A
C798        H803   1.083       .  S
C799        C800   1.412       .  A
C800        F801   1.358       .  S
C805        C806   1.403       .  A
C805        C810   1.402       .  A
C805        H812   1.082       .  S
C806        C807   1.415       .  A
C807        C808   1.402       .  A
C807        F814   1.358       .  S
C808        C809   1.403       .  A
C808        H813   1.082       .  S
C809        C810   1.414       .  A
C810        F811   1.358       .  S
C815        C816   1.402       .  A
C815        C820   1.388       .  A
C815        H822   1.084       .  S
C816        C817   1.399       .  A
C817        C818   1.386       .  A
C817        F824   1.358       .  S
C818        C819   1.407       .  A
C818        H823   1.083       .  S
C819        C820   1.404       .  A
C820        F821   1.358       .  S
C825        C826   1.400       .  A
C825        C830   1.389       .  A
C825        H832   1.083       .  S
C826        C827   1.410       .  A
C827        C828   1.385       .  A
C827        F834   1.358       .  S
C828        C829   1.397       .  A
C828        H833   1.084       .  S
C829        C830   1.408       .  A
C830        F831   1.358       .  S
C835        C836   1.401       .  A
C835        C840   1.393       .  A
C835        H842   1.084       .  S
C836        C837   1.406       .  A
C837        C838   1.393       .  A
C837        F844   1.358       .  S
C838        C839   1.400       .  A
C838        H843   1.084       .  S
C839        C840   1.406       .  A
C840        F841   1.358       .  S
C845        C846   1.414       .  A
C845        C850   1.401       .  A
C845        H852   1.083       .  S
C846        C847   1.405       .  A
C847        C848   1.402       .  A
C847        F854   1.357       .  S
C848        C849   1.414       .  A
C848        H853   1.083       .  S
C849        C850   1.405       .  A
C850        F851   1.357       .  S
C855        C856   1.406       .  A
C855        C860   1.389       .  A
C855        H862   1.084       .  S
C856        C857   1.400       .  A
C857        C858   1.386       .  A
C857        F864   1.358       .  S
C858        C859   1.407       .  A
C858        H863   1.083       .  S
C859        C860   1.401       .  A
C860        F861   1.358       .  S
C865        C866   1.406       .  A
C865        C870   1.394       .  A
C865        H872   1.083       .  S
C866        C867   1.405       .  A
C867        C868   1.393       .  A
C867        F874   1.358       .  S
C868        C869   1.402       .  A
C868        H873   1.084       .  S
C869        C870   1.401       .  A
C870        F871   1.357       .  S
C875        C876   1.406       .  A
C875        C880   1.387       .  A
C875        H882   1.084       .  S
C876        C877   1.399   1_655  A
C877        C878   1.389       .  A
C877        F884   1.358       .  S
C878        C879   1.408       .  A
C878        H883   1.083       .  S
C879        C880   1.401   1_455  A
C880        F881   1.358       .  S
C885        C886   1.402       .  A
C885        C890   1.401       .  A
C885        H892   1.083       .  S
C886        C887   1.417       .  A
C887        C888   1.403       .  A
C887        F894   1.358       .  S
C888        C889   1.404       .  A
C888        H893   1.083       .  S
C889        C890   1.416       .  A
C890        F891   1.358       .  S
C895        C896   1.400       .  A
C895        C900   1.390       .  A
C895        H902   1.083       .  S
C896        C897   1.407   1_455  A
C897        C898   1.387       .  A
C897        F904   1.358       .  S
C898        C899   1.399       .  A
C898        H903   1.083       .  S
C899        C900   1.409   1_655  A
C900        F901   1.358       .  S
C905        C906   1.402       .  A
C905        C910   1.395       .  A
C905        H912   1.084       .  S
C906        C907   1.407       .  A
C907        C908   1.395       .  A
C907        F914   1.358       .  S
C908        C909   1.402       .  A
C908        H913   1.084       .  S
C909        C910   1.407       .  A
C910        F911   1.358       .  S
C915        C916   1.406   1_455  A
C915        C920   1.384       .  A
C915        H922   1.084       .  S
C916        C917   1.402       .  A
C917        C918   1.392       .  A
C917        F924   1.358       .  S
C918        C919   1.407   1_655  A
C918        H923   1.083       .  S
C919        C920   1.400       .  A
C920        F921   1.358       .  S
C925        C926   1.402       .  A
C925        C930   1.393       .  A
C925        H932   1.084       .  S
C926        C927   1.402       .  A
C927        C928   1.394       .  A
C927        F934   1.358       .  S
C928        C929   1.404       .  A
C928        H933   1.083       .  S
C929        C930   1.404       .  A
C930        F931   1.358       .  S
C935        C936   1.412   1_556  A
C935        C940   1.402   1_655  A
C935        H942   1.083       .  S
C936        C937   1.406       .  A
C937        C938   1.401   1_655  A
C937        F944   1.357       .  S
C938        C939   1.411   1_564  A
C938        H943   1.084   1_565  S
C939        C940   1.407   1_545  A
C940        F941   1.357   1_565  S
C945        C946   1.402       .  A
C945        C950   1.402   1_565  A
C945        H952   1.083       .  S
C946        C947   1.408       .  A
C947        C948   1.406   1_565  A
C947        F954   1.357       .  S
C948        C949   1.403       .  A
C948        H953   1.083       .  S
C949        C950   1.408       .  A
C950        F951   1.356       .  S
C955        C956   1.405       .  A
C955        C960   1.408       .  A
C955        H962   1.083       .  S
C956        C957   1.410       .  A
C957        C958   1.395       .  A
C957        F964   1.358       .  S
C958        C959   1.401       .  A
C958        H963   1.084       .  S
C959        C960   1.411       .  A
C960        F961   1.357       .  S
C965        C966   1.412       .  A
C965        C970   1.411       .  A
C965        H972   1.083       .  S
C966        C967   1.406       .  A
C967        C968   1.395       .  A
C967        F974   1.358       .  S
C968        C969   1.408       .  A
C968        H973   1.084       .  S
C969        C970   1.407       .  A
C970        F971   1.357       .  S
C975        C976   1.408       .  A
C975        C980   1.414       .  A
C975        H982   1.083       .  S
C976        C977   1.410       .  A
C977        C978   1.399       .  A
C977        F984   1.354       .  S
C978        C979   1.400       .  A
C978        H983   1.084       .  S
C979        C980   1.411       .  A
C980        F981   1.357       .  S
C985        C986   1.415       .  A
C985        C990   1.417       .  A
C985        H992   1.083       .  S
C986        C987   1.407   1_655  A
C987        C988   1.388   1_455  A
C987        F994   1.358       .  S
C988        C989   1.409       .  A
C988        H993   1.083       .  S
C989        C990   1.411       .  A
C990        F991   1.357       .  S
C995        C996   1.412       .  A
C995       C1000   1.411       .  A
C995       H1002   1.083       .  S
C996        C997   1.408       .  A
C997        C998   1.394       .  A
C997       F1004   1.358       .  S
C998        C999   1.408       .  A
C998       H1003   1.083       .  S
C999       C1000   1.408       .  A
C1000      F1001   1.357       .  S
C1005      C1006   1.411       .  A
C1005      C1010   1.402       .  A
C1005      H1012   1.084       .  S
C1006      C1007   1.408       .  A
C1007      C1008   1.405       .  A
C1007      F1014   1.357       .  S
C1008      C1009   1.412       .  A
C1008      H1013   1.083       .  S
C1009      C1010   1.407       .  A
C1010      F1011   1.357       .  S
C1015      C1016   1.402       .  A
C1015      C1020   1.392       .  A
C1015      H1022   1.084       .  S
C1016      C1017   1.412   1_556  A
C1017      C1018   1.419       .  A
C1017      F1024   1.356       .  S
C1018      C1019   1.411       .  A
C1018      H1023   1.083       .  S
C1019      C1020   1.410   1_554  A
C1020      F1021   1.357       .  S
C1025      C1026   1.406       .  A
C1025      C1030   1.393       .  A
C1025      H1032   1.084       .  S
C1026      C1027   1.408       .  A
C1027      C1028   1.413       .  A
C1027      F1034   1.357       .  S
C1028      C1029   1.412       .  A
C1028      H1033   1.083       .  S
C1029      C1030   1.407       .  A
C1030      F1031   1.358       .  S
C1035      C1036   1.402       .  A
C1035      C1040   1.395       .  A
C1035      H1042   1.083       .  S
C1036      C1037   1.415       .  A
C1037      C1038   1.411       .  A
C1037      F1044   1.357       .  S
C1038      C1039   1.407       .  A
C1038      H1043   1.083       .  S
C1039      C1040   1.413       .  A
C1040      F1041   1.358       .  S
C1045      C1046   1.399       .  A
C1045      C1050   1.395       .  A
C1045      H1052   1.084       .  S
C1046      C1047   1.411   1_554  A
C1047      C1048   1.416       .  A
C1047      F1054   1.357       .  S
C1048      C1049   1.408       .  A
C1048      H1053   1.083       .  S
C1049      C1050   1.411   1_556  A
C1050      F1051   1.354       .  S
C1055      C1056   1.407       .  A
C1055      C1060   1.393       .  A
C1055      H1062   1.083       .  S
C1056      C1057   1.407       .  A
C1057      C1058   1.410       .  A
C1057      F1064   1.357       .  S
C1058      C1059   1.413       .  A
C1058      H1063   1.083       .  S
C1059      C1060   1.407       .  A
C1060      F1061   1.358       .  S
C1065      C1066   1.402       .  A
C1065      C1070   1.396       .  A
C1065      H1072   1.083       .  S
C1066      C1067   1.408       .  A
C1067      C1068   1.393       .  A
C1067      F1074   1.358       .  S
C1068      C1069   1.400       .  A
C1068      H1073   1.084       .  S
C1069      C1070   1.407       .  A
C1070      F1071   1.358       .  S
C1075      C1076   1.412       .  A
C1075      C1080   1.414       .  A
C1075      H1082   1.083       .  S
C1076      C1077   1.407       .  A
C1077      C1078   1.396       .  A
C1077      F1084   1.358       .  S
C1078      C1079   1.409       .  A
C1078      H1083   1.083       .  S
C1079      C1080   1.410       .  A
C1080      F1081   1.357       .  S
C1085      C1086   1.412   1_554  A
C1085      C1090   1.398       .  A
C1085      H1092   1.083       .  S
C1086      C1087   1.407       .  A
C1087      C1088   1.403   1_565  A
C1087      F1094   1.357       .  S
C1088      C1089   1.412   1_556  A
C1088      H1093   1.083       .  S
C1089      C1090   1.404   1_545  A
C1090      F1091   1.357       .  S
C1095      C1096   1.403       .  A
C1095      C1100   1.396       .  A
C1095      H1102   1.083       .  S
C1096      C1097   1.414       .  A
C1097      C1098   1.411       .  A
C1097      F1104   1.357       .  S
C1098      C1099   1.406       .  A
C1098      H1103   1.083       .  S
C1099      C1100   1.411       .  A
C1100      F1101   1.358       .  S
C1105      C1106   1.406       .  A
C1105      C1110   1.396       .  A
C1105      H1112   1.083       .  S
C1106      C1107   1.410       .  A
C1107      C1108   1.417       .  A
C1107      F1114   1.356       .  S
C1108      C1109   1.411       .  A
C1108      H1113   1.083       .  S
C1109      C1110   1.406       .  A
C1110      F1111   1.359       .  S
C1115      C1116   1.400   1_455  A
C1115      C1120   1.394   1_455  A
C1115      H1122   1.083       .  S
C1116      C1117   1.414       .  A
C1117      C1118   1.410       .  A
C1117      F1124   1.357       .  S
C1118      C1119   1.405       .  A
C1118      H1123   1.083       .  S
C1119      C1120   1.412       .  A
C1120      F1121   1.358       .  S
C1125      C1126   1.402       .  A
C1125      C1130   1.402       .  A
C1125      H1132   1.084       .  S
C1126      C1127   1.411       .  A
C1127      C1128   1.412       .  A
C1127      F1134   1.357       .  S
C1128      C1129   1.406       .  A
C1128      H1133   1.083       .  S
C1129      C1130   1.409       .  A
C1130      F1131   1.356       .  S
C1135      C1136   1.409       .  A
C1135      C1140   1.390       .  A
C1135      H1142   1.083       .  S
C1136      C1137   1.410       .  A
C1137      C1138   1.416       .  A
C1137      F1144   1.357       .  S
C1138      C1139   1.413       .  A
C1138      H1143   1.083       .  S
C1139      C1140   1.406       .  A
C1140      F1141   1.358       .  S
C1145      C1146   1.406       .  A
C1145      C1150   1.393       .  A
C1145      H1152   1.083       .  S
C1146      C1147   1.405       .  A
C1147      C1148   1.396       .  A
C1147      F1154   1.358       .  S
C1148      C1149   1.404       .  A
C1148      H1153   1.083       .  S
C1149      C1150   1.401       .  A
C1150      F1151   1.358       .  S
C1155      C1156   1.412   1_455  A
C1155      C1160   1.413       .  A
C1155      H1162   1.083       .  S
C1156      C1157   1.406       .  A
C1157      C1158   1.398   1_655  A
C1157      F1164   1.358       .  S
C1158      C1159   1.407       .  A
C1158      H1163   1.084       .  S
C1159      C1160   1.408       .  A
C1160      F1161   1.357       .  S
C1165      C1166   1.405       .  A
C1165      C1170   1.402   1_455  A
C1165      H1172   1.083       .  S
C1166      C1167   1.413       .  A
C1167      C1168   1.402   1_455  A
C1167      F1174   1.358       .  S
C1168      C1169   1.405       .  A
C1168      H1173   1.083       .  S
C1169      C1170   1.413       .  A
C1170      F1171   1.358       .  S
C1175      C1176   1.406       .  A
C1175      C1180   1.396   1_545  A
C1175      H1182   1.084       .  S
C1176      C1177   1.410       .  A
C1177      C1178   1.417   1_545  A
C1177      F1184   1.357       .  S
C1178      C1179   1.411       .  A
C1178      H1183   1.083       .  S
C1179      C1180   1.404       .  A
C1180      F1181   1.358       .  S
C1185      C1186   1.405       .  A
C1185      C1190   1.409       .  A
C1185      H1192   1.083       .  S
C1186      C1187   1.411       .  A
C1187      C1188   1.396       .  A
C1187      F1194   1.358       .  S
C1188      C1189   1.403       .  A
C1188      H1193   1.083       .  S
C1189      C1190   1.413       .  A
C1190      F1191   1.357       .  S
C1195      C1196   1.403       .  A
C1195      C1200   1.390       .  A
C1195      H1202   1.084       .  S
C1196      C1197   1.406       .  A
C1197      C1198   1.396       .  A
C1197      F1204   1.357       .  S
C1198      C1199   1.400       .  A
C1198      H1203   1.084       .  S
C1199      C1200   1.400       .  A
C1200      F1201   1.358       .  S
C1205      C1206   1.414       .  A
C1205      C1210   1.411       .  A
C1205      H1212   1.083       .  S
C1206      C1207   1.406       .  A
C1207      C1208   1.395       .  A
C1207      F1214   1.358       .  S
C1208      C1209   1.411       .  A
C1208      H1213   1.083       .  S
C1209      C1210   1.407       .  A
C1210      F1211   1.357       .  S
C1215      C1216   1.400       .  A
C1215      C1220   1.398       .  A
C1215      H1222   1.084       .  S
C1216      C1217   1.410       .  A
C1217      C1218   1.413       .  A
C1217      F1224   1.357       .  S
C1218      C1219   1.407       .  A
C1218      H1223   1.083       .  S
C1219      C1220   1.409       .  A
C1220      F1221   1.355       .  S
C1225      C1226   1.402       .  A
C1225      C1230   1.391   1_655  A
C1225      H1232   1.083       .  S
C1226      C1227   1.413   1_655  A
C1227      C1228   1.411       .  A
C1227      F1234   1.357       .  S
C1228      C1229   1.408       .  A
C1228      H1233   1.083       .  S
C1229      C1230   1.413       .  A
C1230      F1231   1.358   1_455  S
C1235      C1236   1.403       .  A
C1235      C1240   1.394       .  A
C1235      H1242   1.084       .  S
C1236      C1237   1.403       .  A
C1237      C1238   1.392       .  A
C1237      F1244   1.358       .  S
C1238      C1239   1.404       .  A
C1238      H1243   1.083       .  S
C1239      C1240   1.404       .  A
C1240      F1241   1.358       .  S
C1245      C1246   1.403       .  A
C1245      C1250   1.391       .  A
C1245      H1252   1.083       .  S
C1246      C1247   1.413       .  A
C1247      C1248   1.411       .  A
C1247      F1254   1.357       .  S
C1248      C1249   1.407       .  A
C1248      H1253   1.083       .  S
C1249      C1250   1.413       .  A
C1250      F1251   1.358       .  S
C1255      C1256   1.405       .  A
C1255      C1260   1.402       .  A
C1255      H1262   1.083       .  S
C1256      C1257   1.413       .  A
C1257      C1258   1.401       .  A
C1257      F1264   1.358       .  S
C1258      C1259   1.403       .  A
C1258      H1263   1.083       .  S
C1259      C1260   1.412       .  A
C1260      F1261   1.358       .  S
C1265      C1266   1.412       .  A
C1265      C1270   1.410       .  A
C1265      H1272   1.083       .  S
C1266      C1267   1.406       .  A
C1267      C1268   1.393       .  A
C1267      F1274   1.358       .  S
C1268      C1269   1.407       .  A
C1268      H1273   1.083       .  S
C1269      C1270   1.408       .  A
C1270      F1271   1.357       .  S
C1275      C1276   1.405       .  A
C1275      C1280   1.396       .  A
C1275      H1282   1.083       .  S
C1276      C1277   1.409       .  A
C1277      C1278   1.413       .  A
C1277      F1284   1.357       .  S
C1278      C1279   1.409       .  A
C1278      H1283   1.083       .  S
C1279      C1280   1.403       .  A
C1280      F1281   1.358       .  S
C1285      C1286   1.399       .  A
C1285      C1290   1.388       .  A
C1285      H1292   1.083       .  S
C1286      C1287   1.411   1_455  A
C1287      C1288   1.389       .  A
C1287      F1294   1.358       .  S
C1288      C1289   1.398       .  A
C1288      H1293   1.083       .  S
C1289      C1290   1.409   1_655  A
C1290      F1291   1.358       .  S
C1295      C1296   1.412       .  A
C1295      C1300   1.410       .  A
C1295      H1302   1.083       .  S
C1296      C1297   1.406   1_655  A
C1297      C1298   1.393   1_455  A
C1297      F1304   1.358       .  S
C1298      C1299   1.408       .  A
C1298      H1303   1.083       .  S
C1299      C1300   1.407       .  A
C1300      F1301   1.357       .  S
C1305      C1306   1.408       .  A
C1305      C1310   1.390       .  A
C1305      H1312   1.083       .  S
C1306      C1307   1.408       .  A
C1307      C1308   1.413       .  A
C1307      F1314   1.357       .  S
C1308      C1309   1.414       .  A
C1308      H1313   1.083       .  S
C1309      C1310   1.406       .  A
C1310      F1311   1.358       .  S
C1315      C1316   1.400       .  A
C1315      C1320   1.396       .  A
C1315      H1322   1.084       .  S
C1316      C1317   1.411       .  A
C1317      C1318   1.414       .  A
C1317      F1324   1.357       .  S
C1318      C1319   1.408       .  A
C1318      H1323   1.083       .  S
C1319      C1320   1.408       .  A
C1320      F1321   1.354       .  S
C1325      C1326   1.407   1_655  A
C1325      C1330   1.389       .  A
C1325      H1332   1.083       .  S
C1326      C1327   1.402       .  A
C1327      C1328   1.383       .  A
C1327      F1334   1.358       .  S
C1328      C1329   1.403   1_455  A
C1328      H1333   1.084       .  S
C1329      C1330   1.401       .  A
C1330      F1331   1.358       .  S
C1335      C1336   1.408       .  A
C1335      C1340   1.395   1_455  A
C1335      H1342   1.083       .  S
C1336      C1337   1.409       .  A
C1337      C1338   1.414       .  A
C1337      F1344   1.357       .  S
C1338      C1339   1.413   1_455  A
C1338      H1343   1.083       .  S
C1339      C1340   1.408       .  A
C1340      F1341   1.358       .  S
C1345      C1346   1.404   1_565  A
C1345      C1350   1.400   1_655  A
C1345      H1352   1.083   1_565  S
C1346      C1347   1.414   1_545  A
C1347      C1348   1.401   1_655  A
C1347      F1354   1.358   1_565  S
C1348      C1349   1.404       .  A
C1348      H1353   1.083       .  S
C1349      C1350   1.413       .  A
C1350      F1351   1.358       .  S
C1355      C1356   1.408       .  A
C1355      C1360   1.415       .  A
C1355      H1362   1.083       .  S
C1356      C1357   1.410       .  A
C1357      C1358   1.398       .  A
C1357      F1364   1.356       .  S
C1358      C1359   1.401       .  A
C1358      H1363   1.084       .  S
C1359      C1360   1.411       .  A
C1360      F1361   1.357       .  S
C1365      C1366   1.406       .  A
C1365      C1370   1.412       .  A
C1365      H1372   1.083       .  S
C1366      C1367   1.413       .  A
C1367      C1368   1.393       .  A
C1367      F1374   1.358       .  S
C1368      C1369   1.402       .  A
C1368      H1373   1.083       .  S
C1369      C1370   1.415       .  A
C1370      F1371   1.357       .  S
C1375      C1376   1.408       .  A
C1375      C1380   1.389       .  A
C1375      H1382   1.083       .  S
C1376      C1377   1.401       .  A
C1377      C1378   1.384       .  A
C1377      F1384   1.358       .  S
C1378      C1379   1.405       .  A
C1378      H1383   1.084       .  S
C1379      C1380   1.399       .  A
C1380      F1381   1.358       .  S
C1385      C1386   1.407       .  A
C1385      C1390   1.412       .  A
C1385      H1392   1.083       .  S
C1386      C1387   1.415       .  A
C1387      C1388   1.396       .  A
C1387      F1394   1.358       .  S
C1388      C1389   1.403       .  A
C1388      H1393   1.083       .  S
C1389      C1390   1.415       .  A
C1390      F1391   1.357       .  S
C1395      C1396   1.411       .  A
C1395      C1400   1.419   1_565  A
C1395      H1402   1.083       .  S
C1396      C1397   1.410       .  A
C1397      C1398   1.391       .  A
C1397      F1404   1.356       .  S
C1398      C1399   1.400   1_565  A
C1398      H1403   1.084   1_565  S
C1399      C1400   1.413       .  A
C1400      F1401   1.357       .  S
C1405      C1406   1.409       .  A
C1405      C1410   1.415       .  A
C1405      H1412   1.083       .  S
C1406      C1407   1.413       .  A
C1407      C1408   1.392   1_455  A
C1407      F1414   1.359       .  S
C1408      C1409   1.401       .  A
C1408      H1413   1.084       .  S
C1409      C1410   1.413   1_655  A
C1410      F1411   1.356       .  S
C1415      C1416   1.405       .  A
C1415      C1420   1.388       .  A
C1415      H1422   1.083       .  S
C1416      C1417   1.402   1_455  A
C1417      C1418   1.386       .  A
C1417      F1424   1.358       .  S
C1418      C1419   1.405       .  A
C1418      H1423   1.084       .  S
C1419      C1420   1.402   1_655  A
C1420      F1421   1.358       .  S
C1425      C1426   1.408       .  A
C1425      C1430   1.397       .  A
C1425      H1432   1.083       .  S
C1426      C1427   1.408       .  A
C1427      C1428   1.393       .  A
C1427      F1434   1.357       .  S
C1428      C1429   1.399       .  A
C1428      H1433   1.084       .  S
C1429      C1430   1.401       .  A
C1430      F1431   1.358       .  S
C1435      C1436   1.402       .  A
C1435      C1440   1.392       .  A
C1435      H1442   1.083       .  S
C1436      C1437   1.414       .  A
C1437      C1438   1.412       .  A
C1437      F1444   1.357       .  S
C1438      C1439   1.407       .  A
C1438      H1443   1.083       .  S
C1439      C1440   1.412       .  A
C1440      F1441   1.358       .  S
C1445      C1446   1.414       .  A
C1445      C1450   1.402       .  A
C1445      H1452   1.084       .  S
C1446      C1447   1.406       .  A
C1447      C1448   1.402       .  A
C1447      F1454   1.357       .  S
C1448      C1449   1.413       .  A
C1448      H1453   1.083       .  S
C1449      C1450   1.406       .  A
C1450      F1451   1.357       .  S
C1455      C1456   1.406   1_554  A
C1455      C1460   1.398       .  A
C1455      H1462   1.084       .  S
C1456      C1457   1.409       .  A
C1457      C1458   1.415       .  A
C1457      F1464   1.356       .  S
C1458      C1459   1.410   1_556  A
C1458      H1463   1.083       .  S
C1459      C1460   1.405       .  A
C1460      F1461   1.358       .  S
C1465      C1466   1.413       .  A
C1465      C1470   1.416       .  A
C1465      H1472   1.083       .  S
C1466      C1467   1.408       .  A
C1467      C1468   1.395       .  A
C1467      F1474   1.358       .  S
C1468      C1469   1.407       .  A
C1468      H1473   1.084       .  S
C1469      C1470   1.410       .  A
C1470      F1471   1.357       .  S
C1475      C1476   1.399       .  A
C1475      C1480   1.387       .  A
C1475      H1482   1.083       .  S
C1476      C1477   1.407       .  A
C1477      C1478   1.384       .  A
C1477      F1484   1.358       .  S
C1478      C1479   1.399       .  A
C1478      H1483   1.083       .  S
C1479      C1480   1.408       .  A
C1480      F1481   1.358       .  S
C1485      C1486   1.404       .  A
C1485      C1490   1.396       .  A
C1485      H1492   1.083       .  S
C1486      C1487   1.403       .  A
C1487      C1488   1.392       .  A
C1487      F1494   1.358       .  S
C1488      C1489   1.404       .  A
C1488      H1493   1.084       .  S
C1489      C1490   1.404       .  A
C1490      F1491   1.358       .  S
C1495      C1496   1.401       .  A
C1495      C1500   1.393       .  A
C1495      H1502   1.083       .  S
C1496      C1497   1.415       .  A
C1497      C1498   1.411       .  A
C1497      F1504   1.357       .  S
C1498      C1499   1.406       .  A
C1498      H1503   1.083       .  S
C1499      C1500   1.412       .  A
C1500      F1501   1.358       .  S
C1505      C1506   1.400       .  A
C1505      C1510   1.398       .  A
C1505      H1512   1.084       .  S
C1506      C1507   1.409   1_554  A
C1507      C1508   1.410       .  A
C1507      F1514   1.357       .  S
C1508      C1509   1.405       .  A
C1508      H1513   1.083       .  S
C1509      C1510   1.408   1_556  A
C1510      F1511   1.355       .  S
C1515      C1516   1.408       .  A
C1515      C1520   1.393       .  A
C1515      H1522   1.083       .  S
C1516      C1517   1.409       .  A
C1517      C1518   1.413       .  A
C1517      F1524   1.357       .  S
C1518      C1519   1.413       .  A
C1518      H1523   1.083       .  S
C1519      C1520   1.408       .  A
C1520      F1521   1.358       .  S
C1525      C1526   1.406       .  A
C1525      C1530   1.387   1_556  A
C1525      H1532   1.084       .  S
C1526      C1527   1.402       .  A
C1527      C1528   1.390       .  A
C1527      F1534   1.358       .  S
C1528      C1529   1.406   1_556  A
C1528      H1533   1.084   1_556  S
C1529      C1530   1.401       .  A
C1530      F1531   1.358       .  S
C1535      C1536   1.402       .  A
C1535      C1540   1.391       .  A
C1535      H1542   1.083       .  S
C1536      C1537   1.413       .  A
C1537      C1538   1.410       .  A
C1537      F1544   1.357       .  S
C1538      C1539   1.407       .  A
C1538      H1543   1.083       .  S
C1539      C1540   1.413       .  A
C1540      F1541   1.359       .  S
C1545      C1546   1.410   1_556  A
C1545      C1550   1.399       .  A
C1545      H1552   1.084       .  S
C1546      C1547   1.408       .  A
C1547      C1548   1.404       .  A
C1547      F1554   1.357       .  S
C1548      C1549   1.412   1_554  A
C1548      H1553   1.084       .  S
C1549      C1550   1.406       .  A
C1550      F1551   1.357       .  S
C1555      C1556   1.408       .  A
C1555      C1560   1.415       .  A
C1555      H1562   1.083       .  S
C1556      C1557   1.409       .  A
C1557      C1558   1.394       .  A
C1557      F1564   1.355       .  S
C1558      C1559   1.400       .  A
C1558      H1563   1.084       .  S
C1559      C1560   1.411       .  A
C1560      F1561   1.357       .  S
C1565      C1566   1.409       .  A
C1565      C1570   1.415       .  A
C1565      H1572   1.083       .  S
C1566      C1567   1.414       .  A
C1567      C1568   1.395       .  A
C1567      F1574   1.358       .  S
C1568      C1569   1.402       .  A
C1568      H1573   1.083       .  S
C1569      C1570   1.416       .  A
C1570      F1571   1.357       .  S
C1575      C1576   1.405       .  A
C1575      C1580   1.390       .  A
C1575      H1582   1.084       .  S
C1576      C1577   1.398       .  A
C1577      C1578   1.385       .  A
C1577      F1584   1.358       .  S
C1578      C1579   1.407       .  A
C1578      H1583   1.083       .  S
C1579      C1580   1.403       .  A
C1580      F1581   1.358       .  S
C1585      C1586   1.403       .  A
C1585      C1590   1.397       .  A
C1585      H1592   1.083       .  S
C1586      C1587   1.407       .  A
C1587      C1588   1.394       .  A
C1587      F1594   1.358       .  S
C1588      C1589   1.401       .  A
C1588      H1593   1.084       .  S
C1589      C1590   1.407       .  A
C1590      F1591   1.358       .  S
C1595      C1596   1.407       .  A
C1595      C1600   1.412       .  A
C1595      H1602   1.083       .  S
C1596      C1597   1.411       .  A
C1597      C1598   1.393       .  A
C1597      F1604   1.358       .  S
C1598      C1599   1.402       .  A
C1598      H1603   1.083       .  S
C1599      C1600   1.413       .  A
C1600      F1601   1.357       .  S
C1605      C1606   1.400       .  A
C1605      C1610   1.396   1_565  A
C1605      H1612   1.084       .  S
C1606      C1607   1.411       .  A
C1607      C1608   1.415   1_565  A
C1607      F1614   1.357       .  S
C1608      C1609   1.408       .  A
C1608      H1613   1.083       .  S
C1609      C1610   1.410       .  A
C1610      F1611   1.355       .  S
C1615      C1616   1.407       .  A
C1615      C1620   1.394   1_655  A
C1615      H1622   1.084       .  S
C1616      C1617   1.409       .  A
C1617      C1618   1.415       .  A
C1617      F1624   1.357       .  S
C1618      C1619   1.413       .  A
C1618      H1623   1.083       .  S
C1619      C1620   1.408   1_655  A
C1620      F1621   1.358       .  S
C1625      C1626   1.398       .  A
C1625      C1630   1.385   1_655  A
C1625      H1632   1.083   1_655  S
C1626      C1627   1.410       .  A
C1627      C1628   1.390       .  A
C1627      F1634   1.358       .  S
C1628      C1629   1.399   1_655  A
C1628      H1633   1.083       .  S
C1629      C1630   1.408       .  A
C1630      F1631   1.358       .  S
C1635      C1636   1.401       .  A
C1635      C1640   1.396       .  A
C1635      H1642   1.084       .  S
C1636      C1637   1.406       .  A
C1637      C1638   1.392       .  A
C1637      F1644   1.358       .  S
C1638      C1639   1.400       .  A
C1638      H1643   1.084       .  S
C1639      C1640   1.408       .  A
C1640      F1641   1.358       .  S
C1645      C1646   1.403       .  A
C1645      C1650   1.393       .  A
C1645      H1652   1.083       .  S
C1646      C1647   1.414       .  A
C1647      C1648   1.410       .  A
C1647      F1654   1.357       .  S
C1648      C1649   1.407       .  A
C1648      H1653   1.083       .  S
C1649      C1650   1.414       .  A
C1650      F1651   1.358       .  S
C1655      C1656   1.403       .  A
C1655      C1660   1.403       .  A
C1655      H1662   1.083       .  S
C1656      C1657   1.416       .  A
C1657      C1658   1.402       .  A
C1657      F1664   1.358       .  S
C1658      C1659   1.403       .  A
C1658      H1663   1.083       .  S
C1659      C1660   1.416       .  A
C1660      F1661   1.358       .  S
