geometry optimzed in LAMMPS
_audit_creation_date              2020-12-01 
_audit_creation_method            'lammps2cif' 
_symmetry_space_group_name_H-M    'P1' 
_symmetry_Int_Tables_number       1 
_symmetry_cell_setting            triclinic 
loop_ 
_symmetry_equiv_pos_as_xyz 
  x,y,z 
_cell_length_a                    34.87566975 
_cell_length_b                    34.875659441949274 
_cell_length_c                    24.012817437824307 
_cell_angle_alpha                 90.00700948757117 
_cell_angle_beta                  90.01989667361002 
_cell_angle_gamma                 90.01459788373447 
loop_ 
_atom_site_label 
_atom_site_type_symbol 
_atom_site_fract_x 
_atom_site_fract_y 
_atom_site_fract_z 
_atom_site_charge 
O1          O  0.32124179  0.42039895  0.44563606    -0.84000
C2          C  0.38198917  0.49123319  0.28170968     0.95400
O3          O  0.34913200  0.99676668  0.30219034    -0.73100
O4          O  0.29251933  0.50895621  0.36104112    -0.76700
Al5        Al  0.33760406  0.49023769  0.37478724     1.49000
C6          C  0.27186912  0.48032776  0.34487259     0.90700
O7          O  0.36193012  0.40380971  0.29091783    -0.82900
O8          O  0.41625290  0.43118837  0.43639625    -0.76400
Al9        Al  0.33946245  0.41525987  0.36876824     1.90100
O10         O  0.42149077  0.41820701  0.31642962    -0.75500
O11         O  0.41372293  0.50592872  0.42274412    -0.75400
O12         O  0.41260615  0.49222189  0.30980184    -0.81000
O13         O  0.36207830  0.03584566  0.39183405    -0.79200
O14         O  0.36760684  0.45658920  0.37675857    -1.15400
O15         O  0.32556061  0.48380611  0.45029517    -0.74600
C16         C  0.32048613  0.45156539  0.47365970     0.96200
C17         C  0.39883969  0.40130540  0.28134532     0.92600
Al18       Al  0.41481908  0.46183456  0.37300631     1.55600
O19         O  0.28493205  0.44369848  0.33942642    -0.79200
C20         C  0.39376401  0.03647805  0.41640811     0.96700
C21         C  0.41308662  0.39647296  0.42422508     0.91600
O22         O  0.38289042  0.38413897  0.39881918    -0.84500
O23         O  0.38289354  0.38412865  0.60932678    -0.84000
C24         C  0.38201302  0.49120353  0.72651724     0.95400
O25         O  0.41263428  0.49218757  0.69846481    -0.73100
O26         O  0.42152351  0.41817877  0.69178035    -0.76700
Al27       Al  0.41484104  0.46181593  0.63523455     1.49000
C28         C  0.39888040  0.40126968  0.72683672     0.90700
O29         O  0.28499837  0.44368510  0.66883691    -0.82900
O30         O  0.32556503  0.48380825  0.55789191    -0.76400
Al31       Al  0.33948388  0.41524750  0.63941061     1.90100
O32         O  0.29252981  0.50893312  0.64716745    -0.75500
O33         O  0.36209588  0.03584036  0.61638767    -0.75400
O34         O  0.34916412  0.99676612  0.70600212    -0.81000
O35         O  0.41374366  0.50592040  0.58552866    -0.79200
O36         O  0.36762521  0.45657536  0.63144417    -1.15400
O37         O  0.41626850  0.43117823  0.57182203    -0.74600
C38         C  0.41309635  0.39646134  0.58396980     0.96200
C39         C  0.27192074  0.48030999  0.66344288     0.92600
Al40       Al  0.33762293  0.49023440  0.63339997     1.55600
O41         O  0.36197307  0.40377640  0.71724499    -0.79200
C42         C  0.39378651  0.03647078  0.59185774     0.96700
C43         C  0.32048199  0.45156505  0.53451916     0.91600
O44         O  0.32122422  0.42040380  0.56254083    -0.84500
O45         O  0.18124757  0.04960716  0.44587758    -0.84000
C46         C  0.12047751  0.47881985  0.28185208     0.95400
O47         O  0.15333056  0.47328249  0.30237095    -0.73100
O48         O  0.20995150  0.96108526  0.36123009    -0.76700
Al49       Al  0.16486132  0.47979223  0.37498376     1.49000
C50         C  0.23056950  0.98970680  0.34497486     0.90700
O51         O  0.14051512  0.06624371  0.29114267    -0.82900
O52         O  0.08621196  0.03882907  0.43655678    -0.76400
Al53       Al  0.16299932  0.05477026  0.36899247     1.90100
O54         O  0.08096202  0.05183682  0.31659223    -0.75500
O55         O  0.08874049  0.46409495  0.42284143    -0.75400
O56         O  0.08985664  0.47782869  0.30990556    -0.81000
O57         O  0.14038643  0.43418224  0.39196565    -0.79200
O58         O  0.13485647  0.01344274  0.37694374    -1.15400
O59         O  0.17690691  0.98620239  0.45050770    -0.74600
C60         C  0.18199054  0.01843861  0.47389334     0.96200
C61         C  0.10360718  0.06874373  0.28153576     0.92600
Al62       Al  0.08764287  0.00819794  0.37313967     1.55600
O63         O  0.21749824  0.02633547  0.33958385    -0.79200
C64         C  0.10870116  0.43354788  0.41650939     0.96700
C65         C  0.08938045  0.07354604  0.42441235     0.91600
O66         O  0.11958368  0.08588471  0.39906315    -0.84500
O67         O  0.11960158  0.08585331  0.60959978    -0.84000
C68         C  0.12049061  0.47876554  0.72670972     0.95400
O69         O  0.08987823  0.47776802  0.69860886    -0.73100
O70         O  0.08099170  0.05178160  0.69197722    -0.76700
Al71       Al  0.08766976  0.00815702  0.63540691     1.49000
C72         C  0.10363750  0.06868668  0.72706304     0.90700
O73         O  0.21755100  0.02630399  0.66900587    -0.82900
O74         O  0.17693027  0.48618790  0.55812461    -0.76400
Al75       Al  0.16302372  0.05473520  0.63965689     1.90100
O76         O  0.20997382  0.96104498  0.64739708    -0.75500
O77         O  0.14041081  0.43414496  0.61659531    -0.75400
O78         O  0.15335145  0.47322602  0.70624143    -0.81000
O79         O  0.08877171  0.46406442  0.58566992    -0.79200
O80         O  0.13488240  0.01340409  0.63166603    -1.15400
O81         O  0.08623909  0.03880512  0.57201908    -0.74600
C82         C  0.08940802  0.07352099  0.58418786     0.96200
C83         C  0.23061982  0.98967813  0.66356040     0.92600
Al84       Al  0.16488543  0.47975542  0.63364118     1.55600
O85         O  0.14054872  0.06618569  0.71750134    -0.79200
C86         C  0.10872651  0.43351370  0.59201548     0.96700
C87         C  0.18199742  0.01843396  0.53475928     0.91600
O88         O  0.18124624  0.04959500  0.56278929    -0.84500
O89         O  0.38292967  0.08580390  0.89886271    -0.84000
C90         C  0.38199185  0.47873575  0.78166763     0.95400
O91         O  0.41260246  0.47773465  0.80977001    -0.73100
O92         O  0.42152522  0.05174829  0.81645230    -0.76700
Al93       Al  0.41482448  0.00811352  0.87299338     1.49000
C94         C  0.39888564  0.06865767  0.78137858     0.90700
O95         O  0.28496351  0.02628347  0.83940377    -0.82900
O96         O  0.32555371  0.48613726  0.95026540    -0.76400
Al97       Al  0.33949670  0.05469763  0.86877646     1.90100
O98         O  0.29249145  0.96101996  0.86096707    -0.75500
O99         O  0.36204383  0.43409399  0.89174871    -0.75400
O100        O  0.34912651  0.47319827  0.80213200    -0.81000
O101        O  0.41369627  0.46401114  0.92269812    -0.79200
O102        O  0.36761443  0.01336277  0.87673621    -1.15400
O103        O  0.41627249  0.03874960  0.93640445    -0.74600
C104        C  0.41311615  0.07346802  0.92426620     0.96200
C105        C  0.27186807  0.98966256  0.84482645     0.92600
Al106      Al  0.33759494  0.47971417  0.87473976     1.55600
O107        O  0.36197491  0.06615851  0.79094395    -0.79200
C108        C  0.39372909  0.43345924  0.91632642     0.96700
C109        C  0.32049945  0.01838211  0.97364603     0.91600
O110        O  0.32126673  0.04954505  0.94563263    -0.84500
O111        O  0.32125915  0.04956201  0.06253094    -0.84000
C112        C  0.38198928  0.47878895  0.22654497     0.95400
O113        O  0.34913235  0.47324917  0.20602785    -0.73100
O114        O  0.29250005  0.96106051  0.14716686    -0.76700
Al115      Al  0.33760585  0.47975267  0.13341542     1.49000
C116        C  0.27190304  0.98969074  0.16341908     0.90700
O117        O  0.36198262  0.06621191  0.21727157    -0.82900
O118        O  0.41628839  0.03879312  0.07186253    -0.76400
Al119      Al  0.33950423  0.05473637  0.13941741     1.90100
O120        O  0.42153186  0.05180245  0.19183499    -0.75500
O121        O  0.41371545  0.46405957  0.08554998    -0.75400
O122        O  0.41260778  0.47779452  0.19848910    -0.81000
O123        O  0.36205985  0.43413857  0.11642227    -0.79200
O124        O  0.36762499  0.01340735  0.13146465    -1.15400
O125        O  0.32556575  0.98615598  0.05789197    -0.74600
C126        C  0.32050127  0.01839033  0.03451113     0.96200
C127        C  0.39888922  0.06870637  0.22689353     0.92600
Al128      Al  0.41483597  0.00816373  0.13526875     1.55600
O129        O  0.28499914  0.02631472  0.16881443    -0.79200
C130        C  0.39374263  0.43350890  0.09186925     0.96700
C131        C  0.41312919  0.07351087  0.08400806     0.91600
O132        O  0.38293193  0.08584716  0.10935992    -0.84500
O133        O  0.11953956  0.38415900  0.89901333    -0.84000
C134        C  0.12048032  0.49123390  0.78186355     0.95400
O135        O  0.08986069  0.49222285  0.80991695    -0.73100
O136        O  0.08093282  0.41821614  0.81656033    -0.76700
Al137      Al  0.08763357  0.46184747  0.87312947     1.49000
C138        C  0.10357234  0.40131008  0.78150132     0.90700
O139        O  0.21745745  0.44369479  0.83953921    -0.82900
O140        O  0.17691505  0.48383934  0.95048765    -0.76400
Al141      Al  0.16296294  0.41527256  0.86894964     1.90100
O142        O  0.20997628  0.50894524  0.86122146    -0.75500
O143        O  0.14041552  0.03587663  0.89200729    -0.75400
O144        O  0.15333307  0.99679331  0.80237959    -0.81000
O145        O  0.08875646  0.50594989  0.92285861    -0.79200
O146        O  0.13484629  0.45660334  0.87692254    -1.15400
O147        O  0.08617907  0.43120595  0.93652512    -0.74600
C148        C  0.08934220  0.39648868  0.92437137     0.96200
C149        C  0.23056226  0.48031380  0.84494218     0.92600
Al150      Al  0.16486588  0.49026394  0.87498147     1.55600
O151        O  0.14047868  0.40380646  0.79110920    -0.79200
C152        C  0.10872636  0.03650356  0.91654446     0.96700
C153        C  0.18197722  0.45159649  0.97385255     0.91600
O154        O  0.18121871  0.42043350  0.94582367    -0.84500
O155        O  0.18119766  0.42043292  0.06272095    -0.84000
C156        C  0.12048808  0.49125833  0.22668851     0.95400
O157        O  0.15334964  0.99678601  0.20620915    -0.73100
O158        O  0.20997263  0.50896778  0.14736238    -0.76700
Al159      Al  0.16487161  0.49026750  0.13360438     1.49000
C160        C  0.23059877  0.48033059  0.16351466     0.90700
O161        O  0.14049976  0.40383227  0.21742008    -0.82900
O162        O  0.08618818  0.43123286  0.07196402    -0.76400
Al163      Al  0.16297057  0.41528666  0.13957998     1.90100
O164        O  0.08094622  0.41823767  0.19192365    -0.75500
O165        O  0.08876386  0.50597244  0.08566368    -0.75400
O166        O  0.08987214  0.49225077  0.19859641    -0.81000
O167        O  0.14042271  0.03588716  0.11659274    -0.79200
O168        O  0.13485111  0.45662049  0.13161714    -1.15400
O169        O  0.17690845  0.48384081  0.05808878    -0.74600
C170        C  0.18196884  0.45160050  0.03471126     0.96200
C171        C  0.10359054  0.40133322  0.22699706     0.92600
Al172      Al  0.08764183  0.46187088  0.13537328     1.55600
O173        O  0.21750799  0.44370717  0.16894228    -0.79200
C174        C  0.10873474  0.03652328  0.09202364     0.96700
C175        C  0.08934171  0.39651536  0.08410844     0.91600
O176        O  0.11953106  0.38417807  0.10950516    -0.84500
O177        O  0.06581323  0.30504262  0.44577159    -0.84000
C178        C  0.49500196  0.36575141  0.28174718     0.95400
O179        O  0.48948198  0.33289091  0.30224120    -0.73100
O180        O  0.97729374  0.27627069  0.36109488    -0.76700
Al181      Al  0.99598911  0.32137330  0.37485617     1.49000
C182        C  0.00592871  0.25565610  0.34491792     0.90700
O183        O  0.08242880  0.34575638  0.29106935    -0.82900
O184        O  0.05501098  0.40006603  0.43649109    -0.76400
Al185      Al  0.07096722  0.32327990  0.36890720     1.90100
O186        O  0.06801492  0.40530693  0.31653813    -0.75500
O187        O  0.48027393  0.39748252  0.42275255    -0.75400
O188        O  0.99400558  0.39636933  0.30982547    -0.81000
O189        O  0.45036566  0.34582101  0.39182661    -0.79200
O190        O  0.02963279  0.35139748  0.37684720    -1.15400
O191        O  0.00240605  0.30933945  0.45038016    -0.74600
C192        C  0.03464483  0.30427318  0.47377148     0.96200
C193        C  0.08492332  0.38266503  0.28147970     0.92600
Al194      Al  0.02437847  0.39860662  0.37306659     1.55600
O195        O  0.04255187  0.26875024  0.33951612    -0.79200
C196        C  0.44972523  0.37751002  0.41638236     0.96700
C197        C  0.08972975  0.39690970  0.42436637     0.91600
O198        O  0.10206955  0.36671691  0.39899497    -0.84500
O199        O  0.10207626  0.36668357  0.60950661    -0.84000
C200        C  0.49498964  0.36574539  0.72658803     0.95400
O201        O  0.99399820  0.39636171  0.69851812    -0.73100
O202        O  0.06800748  0.40528486  0.69192003    -0.76700
Al203      Al  0.02438323  0.39858575  0.63532668     1.49000
C204        C  0.08490976  0.38264431  0.72699481     0.90700
O205        O  0.04253543  0.26875025  0.66892554    -0.82900
O206        O  0.00240056  0.30930892  0.55798639    -0.76400
Al207      Al  0.07095887  0.32325689  0.63955022     1.90100
O208        O  0.97728241  0.27624615  0.64724416    -0.75500
O209        O  0.45035564  0.34580707  0.61643236    -0.75400
O210        O  0.48943069  0.33288928  0.70608826    -0.81000
O211        O  0.48028686  0.39746251  0.58557138    -0.79200
O212        O  0.02962766  0.35137371  0.63155589    -1.15400
O213        O  0.05503232  0.40003692  0.57194957    -0.74600
C214        C  0.08974801  0.39687711  0.58412460     0.96200
C215        C  0.00591658  0.25564806  0.66349472     0.92600
Al216      Al  0.49596753  0.32135566  0.63349159     1.55600
O217        O  0.08241441  0.34573653  0.71739731    -0.79200
C218        C  0.44973169  0.37749380  0.59187742     0.96700
C219        C  0.03464520  0.30425582  0.53463271     0.91600
O220        O  0.06580703  0.30501494  0.56267423    -0.84500
O221        O  0.43668453  0.16497874  0.44576562    -0.84000
C222        C  0.00746869  0.10425823  0.28179683     0.95400
O223        O  0.01301133  0.13711552  0.30230339    -0.73100
O224        O  0.52519953  0.19374320  0.36116750    -0.76700
Al225      Al  0.00650162  0.14863997  0.37491006     1.49000
C226        C  0.49656765  0.21435223  0.34493985     0.90700
O227        O  0.42004859  0.12427358  0.29102646    -0.82900
O228        O  0.44745515  0.06995808  0.43646125    -0.76400
Al229      Al  0.43151770  0.14674474  0.36888407     1.90100
O230        O  0.43445261  0.06472100  0.31648476    -0.75500
O231        O  0.02219205  0.07253052  0.42280831    -0.75400
O232        O  0.50846244  0.07364024  0.30986374    -0.81000
O233        O  0.05211449  0.12418634  0.39193375    -0.79200
O234        O  0.47284659  0.11862235  0.37685677    -1.15400
O235        O  0.50009126  0.16067803  0.45042800    -0.74600
C236        C  0.46785542  0.16573870  0.47379497     0.96200
C237        C  0.41755120  0.08736662  0.28141398     0.92600
Al238      Al  0.47808897  0.07141189  0.37306923     1.55600
O239        O  0.45994280  0.20126036  0.33951774    -0.79200
C240        C  0.05274328  0.09250404  0.41649773     0.96700
C241        C  0.41273784  0.07311680  0.42429959     0.91600
O242        O  0.40040353  0.10331255  0.39892767    -0.84500
O243        O  0.40042896  0.10329648  0.60940437    -0.84000
C244        C  0.00749107  0.10422631  0.72665754     0.95400
O245        O  0.50848659  0.07361398  0.69856890    -0.73100
O246        O  0.43447350  0.06469244  0.69184826    -0.76700
Al247      Al  0.47811468  0.07139535  0.63532774     1.49000
C248        C  0.41756136  0.08733050  0.72690849     0.90700
O249        O  0.45994846  0.20124261  0.66892251    -0.82900
O250        O  0.50010280  0.16067485  0.55804916    -0.76400
Al251      Al  0.43153415  0.14672432  0.63951185     1.90100
O252        O  0.52520926  0.19373122  0.64735840    -0.75500
O253        O  0.05213868  0.12417717  0.61658623    -0.75400
O254        O  0.01303409  0.13708896  0.70618111    -0.81000
O255        O  0.02222146  0.07252332  0.58564602    -0.79200
O256        O  0.47286823  0.11860677  0.63157036    -1.15400
O257        O  0.44748489  0.06995039  0.57189943    -0.74600
C258        C  0.41276572  0.07310790  0.58401990     0.96200
C259        C  0.49656885  0.21434178  0.66352844     0.92600
Al260      Al  0.00652016  0.14862603  0.63357254     1.55600
O261        O  0.42006333  0.12423998  0.71733598    -0.79200
C262        C  0.05277327  0.09249006  0.59202411     0.96700
C263        C  0.46785965  0.16573558  0.53465741     0.91600
O264        O  0.43669563  0.16496900  0.56265840    -0.84500
O265        O  0.40036764  0.36662744  0.89879040    -0.84000
C266        C  0.00746730  0.36574346  0.78174110     0.95400
O267        O  0.50846080  0.39635710  0.80982998    -0.73100
O268        O  0.43444791  0.40524247  0.81641566    -0.76700
Al269      Al  0.47806618  0.39856314  0.87301433     1.49000
C270        C  0.41754479  0.38259750  0.78132853     0.90700
O271        O  0.45992942  0.26869476  0.83940383    -0.82900
O272        O  0.50003903  0.30929842  0.95032181    -0.76400
Al273      Al  0.43149255  0.32320912  0.86875367     1.90100
O274        O  0.52518374  0.27625687  0.86106784    -0.75500
O275        O  0.05208275  0.34582406  0.89189015    -0.75400
O276        O  0.01301864  0.33288598  0.80222216    -0.81000
O277        O  0.52215383  0.39746130  0.92277939    -0.79200
O278        O  0.47282188  0.35134952  0.87676264    -1.15400
O279        O  0.44741007  0.39999185  0.93638447    -0.74600
C280        C  0.41269608  0.39682337  0.92419456     0.96200
C281        C  0.49655426  0.25562264  0.84485364     0.92600
Al282      Al  0.00647735  0.32134785  0.87481588     1.55600
O283        O  0.42004429  0.34568709  0.79090283    -0.79200
C284        C  0.05270708  0.37750802  0.91646257     0.96700
C285        C  0.46779281  0.30423492  0.97367452     0.91600
O286        O  0.43663240  0.30498130  0.94563062    -0.84500
O287        O  0.43662473  0.30500508  0.06254433    -0.84000
C288        C  0.00742790  0.36576071  0.22658127     0.95400
O289        O  0.01295491  0.33290712  0.20606908    -0.73100
O290        O  0.52515368  0.27629482  0.14721003    -0.76700
Al291      Al  0.00644529  0.32138362  0.13345379     1.49000
C292        C  0.49653024  0.25566865  0.16343130     0.90700
O293        O  0.42000436  0.34573066  0.21726207    -0.82900
O294        O  0.44741981  0.40004150  0.07184676    -0.76400
Al295      Al  0.43147097  0.32324966  0.13941928     1.90100
O296        O  0.43441268  0.40528513  0.19180095    -0.75500
O297        O  0.02215585  0.39750641  0.08559018    -0.75400
O298        O  0.50841983  0.39638289  0.19852079    -0.81000
O299        O  0.05206046  0.34585520  0.11648694    -0.79200
O300        O  0.47280095  0.35139148  0.13147563    -1.15400
O301        O  0.50002990  0.30934259  0.05792885    -0.74600
C302        C  0.46779183  0.30425517  0.03453857     0.96200
C303        C  0.41750471  0.38263903  0.22685635     0.92600
Al304      Al  0.47805123  0.39860413  0.13527395     1.55600
O305        O  0.45990196  0.26873879  0.16882497    -0.79200
C306        C  0.05270119  0.37754410  0.09194408     0.96700
C307        C  0.41270193  0.39687272  0.08397879     0.91600
O308        O  0.40036152  0.36667063  0.10933485    -0.84500
O309        O  0.10209469  0.10333788  0.89904707    -0.84000
C310        C  0.49502669  0.10421406  0.78180540     0.95400
O311        O  0.99404105  0.07359509  0.80987262    -0.73100
O312        O  0.06805241  0.06471058  0.81659634    -0.76700
Al313      Al  0.02440978  0.07139220  0.87311732     1.49000
C314        C  0.08496289  0.08735401  0.78153940     0.90700
O315        O  0.04254692  0.20124596  0.83951496    -0.82900
O316        O  0.00241839  0.16066729  0.95042395    -0.76400
Al317      Al  0.07098024  0.14674986  0.86894223     1.90100
O318        O  0.97729410  0.19370081  0.86112745    -0.75500
O319        O  0.45038731  0.12413696  0.89190186    -0.75400
O320        O  0.48947118  0.13706655  0.80230359    -0.81000
O321        O  0.98030233  0.07249010  0.92279859    -0.79200
O322        O  0.02965088  0.11860761  0.87689280    -1.15400
O323        O  0.05504061  0.06996866  0.93654636    -0.74600
C324        C  0.08975873  0.07313925  0.92441646     0.96200
C325        C  0.00592159  0.21432123  0.84490316     0.92600
Al326      Al  0.99599578  0.14860950  0.87490810     1.55600
O327        O  0.08245350  0.12426237  0.79111577    -0.79200
C328        C  0.44975325  0.09244678  0.91644242     0.96700
C329        C  0.03466147  0.16575167  0.97380974     0.91600
O330        O  0.06582333  0.16500463  0.94580212    -0.84500
O331        O  0.06583175  0.16500886  0.06270497    -0.84000
C332        C  0.49501698  0.10425679  0.22663168     0.95400
O333        O  0.48947751  0.13711301  0.20614008    -0.73100
O334        O  0.97728396  0.19372708  0.14727872    -0.76700
Al335      Al  0.99600144  0.14864159  0.13354108     1.49000
C336        C  0.00591005  0.21436938  0.16348166     0.90700
O337        O  0.08243830  0.12431588  0.21744216    -0.82900
O338        O  0.05505536  0.06999303  0.07197329    -0.76400
Al339      Al  0.07098051  0.14678510  0.13958344     1.90100
O340        O  0.06803983  0.06475617  0.19194781    -0.75500
O341        O  0.48031663  0.07252331  0.08560215    -0.75400
O342        O  0.99402574  0.07363978  0.19854958    -0.81000
O343        O  0.45039627  0.12416526  0.11649026    -0.79200
O344        O  0.02965323  0.11863983  0.13158870    -1.15400
O345        O  0.00242511  0.16068419  0.05803083    -0.74600
C346        C  0.03466383  0.16575727  0.03467117     0.96200
C347        C  0.08494164  0.08740705  0.22703052     0.92600
Al348      Al  0.02441084  0.07142727  0.13535455     1.55600
O349        O  0.04254005  0.20130593  0.16892663    -0.79200
C350        C  0.44976704  0.09248267  0.09191774     0.96700
C351        C  0.08977063  0.07316129  0.08415303     0.91600
O352        O  0.10210350  0.10336067  0.10954659    -0.84500
O353        O  0.32124186  0.92039896  0.44563612    -0.84000
C354        C  0.38198920  0.99123321  0.28170968     0.95400
O355        O  0.34913200  0.49676664  0.30219031    -0.73100
O356        O  0.29251930  0.00895621  0.36104114    -0.76700
Al357      Al  0.33760405  0.99023770  0.37478725     1.49000
C358        C  0.27186913  0.98032777  0.34487257     0.90700
O359        O  0.36193015  0.90380974  0.29091785    -0.82900
O360        O  0.41625297  0.93118841  0.43639626    -0.76400
Al361      Al  0.33946251  0.91525989  0.36876825     1.90100
O362        O  0.42149081  0.91820704  0.31642962    -0.75500
O363        O  0.41372289  0.00592878  0.42274410    -0.75400
O364        O  0.41260617  0.99222191  0.30980180    -0.81000
O365        O  0.36207838  0.53584565  0.39183405    -0.79200
O366        O  0.36760688  0.95658924  0.37675858    -1.15400
O367        O  0.32556063  0.98380612  0.45029524    -0.74600
C368        C  0.32048615  0.95156539  0.47365978     0.96200
C369        C  0.39883969  0.90130544  0.28134532     0.92600
Al370      Al  0.41481911  0.96183461  0.37300631     1.55600
O371        O  0.28493207  0.94369847  0.33942640    -0.79200
C372        C  0.39376408  0.53647802  0.41640810     0.96700
C373        C  0.41308669  0.89647299  0.42422508     0.91600
O374        O  0.38289050  0.88413900  0.39881918    -0.84500
O375        O  0.38289354  0.88412866  0.60932680    -0.84000
C376        C  0.38201294  0.99120356  0.72651725     0.95400
O377        O  0.41263429  0.99218759  0.69846480    -0.73100
O378        O  0.42152346  0.91817882  0.69178042    -0.76700
Al379      Al  0.41484100  0.96181594  0.63523457     1.49000
C380        C  0.39888038  0.90126965  0.72683679     0.90700
O381        O  0.28499836  0.94368508  0.66883699    -0.82900
O382        O  0.32556488  0.98380828  0.55789201    -0.76400
Al383      Al  0.33948388  0.91524749  0.63941068     1.90100
O384        O  0.29252979  0.00893311  0.64716756    -0.75500
O385        O  0.36209593  0.53584034  0.61638769    -0.75400
O386        O  0.34916410  0.49676608  0.70600212    -0.81000
O387        O  0.41374359  0.00592037  0.58552864    -0.79200
O388        O  0.36762518  0.95657536  0.63144419    -1.15400
O389        O  0.41626849  0.93117823  0.57182204    -0.74600
C390        C  0.41309633  0.89646131  0.58396984     0.96200
C391        C  0.27192072  0.98030996  0.66344299     0.92600
Al392      Al  0.33762288  0.99023441  0.63340001     1.55600
O393        O  0.36197306  0.90377625  0.71724503    -0.79200
C394        C  0.39378654  0.53647078  0.59185768     0.96700
C395        C  0.32048192  0.95156507  0.53451928     0.91600
O396        O  0.32122425  0.92040382  0.56254097    -0.84500
O397        O  0.18124766  0.54960712  0.44587749    -0.84000
C398        C  0.12047757  0.97881984  0.28185211     0.95400
O399        O  0.15333056  0.97328234  0.30237102    -0.73100
O400        O  0.20995147  0.46108524  0.36123002    -0.76700
Al401      Al  0.16486134  0.97979221  0.37498385     1.49000
C402        C  0.23056950  0.48970681  0.34497486     0.90700
O403        O  0.14051501  0.56624370  0.29114269    -0.82900
O404        O  0.08621199  0.53882909  0.43655678    -0.76400
Al405      Al  0.16299931  0.55477021  0.36899242     1.90100
O406        O  0.08096191  0.55183671  0.31659219    -0.75500
O407        O  0.08874050  0.96409498  0.42284147    -0.75400
O408        O  0.08985667  0.97782874  0.30990556    -0.81000
O409        O  0.14038640  0.93418224  0.39196570    -0.79200
O410        O  0.13485642  0.51344270  0.37694371    -1.15400
O411        O  0.17690686  0.48620237  0.45050760    -0.74600
C412        C  0.18199052  0.51843858  0.47389325     0.96200
C413        C  0.10360708  0.56874369  0.28153578     0.92600
Al414      Al  0.08764281  0.50819790  0.37313966     1.55600
O415        O  0.21749823  0.52633545  0.33958379    -0.79200
C416        C  0.10870117  0.93354790  0.41650948     0.96700
C417        C  0.08938051  0.57354605  0.42441234     0.91600
O418        O  0.11958376  0.58588469  0.39906315    -0.84500
O419        O  0.11960151  0.58585332  0.60959972    -0.84000
C420        C  0.12049066  0.97876556  0.72670973     0.95400
O421        O  0.08987828  0.97776803  0.69860888    -0.73100
O422        O  0.08099163  0.55178162  0.69197722    -0.76700
Al423      Al  0.08766973  0.50815702  0.63540690     1.49000
C424        C  0.10363748  0.56868670  0.72706300     0.90700
O425        O  0.21755095  0.52630399  0.66900578    -0.82900
O426        O  0.17693035  0.98618791  0.55812465    -0.76400
Al427      Al  0.16302366  0.55473523  0.63965680     1.90100
O428        O  0.20997384  0.46104497  0.64739706    -0.75500
O429        O  0.14041085  0.93414500  0.61659532    -0.75400
O430        O  0.15335150  0.97322605  0.70624143    -0.81000
O431        O  0.08877172  0.96406443  0.58566993    -0.79200
O432        O  0.13488237  0.51340410  0.63166602    -1.15400
O433        O  0.08623900  0.53880512  0.57201908    -0.74600
C434        C  0.08940796  0.57352104  0.58418785     0.96200
C435        C  0.23061981  0.48967813  0.66356033     0.92600
Al436      Al  0.16488547  0.97975545  0.63364120     1.55600
O437        O  0.14054867  0.56618571  0.71750123    -0.79200
C438        C  0.10872649  0.93351374  0.59201547     0.96700
C439        C  0.18199731  0.51843395  0.53475920     0.91600
O440        O  0.18124609  0.54959500  0.56278917    -0.84500
O441        O  0.38292961  0.58580386  0.89886261    -0.84000
C442        C  0.38199190  0.97873578  0.78166763     0.95400
O443        O  0.41260240  0.97773465  0.80977001    -0.73100
O444        O  0.42152523  0.55174834  0.81645229    -0.76700
Al445      Al  0.41482448  0.50811354  0.87299338     1.49000
C446        C  0.39888564  0.56865766  0.78137853     0.90700
O447        O  0.28496356  0.52628345  0.83940348    -0.82900
O448        O  0.32555360  0.98613724  0.95026542    -0.76400
Al449      Al  0.33949671  0.55469758  0.86877629     1.90100
O450        O  0.29249145  0.46102002  0.86096709    -0.75500
O451        O  0.36204389  0.93409394  0.89174874    -0.75400
O452        O  0.34912648  0.97319829  0.80213201    -0.81000
O453        O  0.41369634  0.96401107  0.92269811    -0.79200
O454        O  0.36761445  0.51336276  0.87673611    -1.15400
O455        O  0.41627242  0.53874961  0.93640448    -0.74600
C456        C  0.41311609  0.57346799  0.92426619     0.96200
C457        C  0.27186805  0.48966263  0.84482637     0.92600
Al458      Al  0.33759493  0.97971415  0.87473979     1.55600
O459        O  0.36197491  0.56615837  0.79094381    -0.79200
C460        C  0.39372916  0.93345919  0.91632651     0.96700
C461        C  0.32049955  0.51838217  0.97364596     0.91600
O462        O  0.32126676  0.54954506  0.94563248    -0.84500
O463        O  0.32125923  0.54956208  0.06253085    -0.84000
C464        C  0.38198921  0.97878898  0.22654498     0.95400
O465        O  0.34913230  0.97324923  0.20602788    -0.73100
O466        O  0.29250004  0.46106044  0.14716675    -0.76700
Al467      Al  0.33760580  0.97975268  0.13341546     1.49000
C468        C  0.27190301  0.48969069  0.16341888     0.90700
O469        O  0.36198256  0.56621191  0.21727153    -0.82900
O470        O  0.41628843  0.53879314  0.07186255    -0.76400
Al471      Al  0.33950422  0.55473637  0.13941733     1.90100
O472        O  0.42153180  0.55180245  0.19183493    -0.75500
O473        O  0.41371538  0.96405961  0.08554992    -0.75400
O474        O  0.41260773  0.97779451  0.19848908    -0.81000
O475        O  0.36205985  0.93413857  0.11642234    -0.79200
O476        O  0.36762503  0.51340734  0.13146463    -1.15400
O477        O  0.32556587  0.48615605  0.05789191    -0.74600
C478        C  0.32050139  0.51839037  0.03451104     0.96200
C479        C  0.39888916  0.56870636  0.22689348     0.92600
Al480      Al  0.41483601  0.50816374  0.13526875     1.55600
O481        O  0.28499910  0.52631467  0.16881416    -0.79200
C482        C  0.39374261  0.93350892  0.09186925     0.96700
C483        C  0.41312921  0.57351087  0.08400805     0.91600
O484        O  0.38293192  0.58584717  0.10935990    -0.84500
O485        O  0.11953957  0.88415896  0.89901340    -0.84000
C486        C  0.12048038  0.99123390  0.78186357     0.95400
O487        O  0.08986074  0.99222289  0.80991695    -0.73100
O488        O  0.08093274  0.91821617  0.81656028    -0.76700
Al489      Al  0.08763351  0.96184748  0.87312944     1.49000
C490        C  0.10357229  0.90131006  0.78150134     0.90700
O491        O  0.21745750  0.94369474  0.83953916    -0.82900
O492        O  0.17691513  0.98383925  0.95048764    -0.76400
Al493      Al  0.16296294  0.91527250  0.86894967     1.90100
O494        O  0.20997635  0.00894519  0.86122150    -0.75500
O495        O  0.14041552  0.53587671  0.89200697    -0.75400
O496        O  0.15333302  0.49679333  0.80237955    -0.81000
O497        O  0.08875636  0.00594987  0.92285867    -0.79200
O498        O  0.13484627  0.95660330  0.87692260    -1.15400
O499        O  0.08617896  0.93120593  0.93652504    -0.74600
C500        C  0.08934216  0.89648867  0.92437138     0.96200
C501        C  0.23056229  0.98031380  0.84494218     0.92600
Al502      Al  0.16486592  0.99026387  0.87498151     1.55600
O503        O  0.14047862  0.90380634  0.79110930    -0.79200
C504        C  0.10872641  0.53650361  0.91654426     0.96700
C505        C  0.18197730  0.95159645  0.97385256     0.91600
O506        O  0.18121879  0.92043343  0.94582369    -0.84500
O507        O  0.18119756  0.92043290  0.06272093    -0.84000
C508        C  0.12048812  0.99125835  0.22668853     0.95400
O509        O  0.15334957  0.49678601  0.20620912    -0.73100
O510        O  0.20997265  0.00896778  0.14736239    -0.76700
Al511      Al  0.16487164  0.99026748  0.13360439     1.49000
C512        C  0.23059879  0.98033061  0.16351472     0.90700
O513        O  0.14049978  0.90383227  0.21742004    -0.82900
O514        O  0.08618824  0.93123286  0.07196403    -0.76400
Al515      Al  0.16297058  0.91528663  0.13957997     1.90100
O516        O  0.08094622  0.91823768  0.19192366    -0.75500
O517        O  0.08876385  0.00597245  0.08566366    -0.75400
O518        O  0.08987221  0.99225080  0.19859642    -0.81000
O519        O  0.14042273  0.53588716  0.11659274    -0.79200
O520        O  0.13485113  0.95662047  0.13161716    -1.15400
O521        O  0.17690852  0.98384081  0.05808878    -0.74600
C522        C  0.18196886  0.95160046  0.03471126     0.96200
C523        C  0.10359056  0.90133324  0.22699706     0.92600
Al524      Al  0.08764186  0.96187089  0.13537328     1.55600
O525        O  0.21750804  0.94370716  0.16894226    -0.79200
C526        C  0.10873473  0.53652326  0.09202366     0.96700
C527        C  0.08934176  0.89651535  0.08410845     0.91600
O528        O  0.11953110  0.88417805  0.10950517    -0.84500
O529        O  0.06581328  0.80504259  0.44577163    -0.84000
C530        C  0.49500185  0.86575138  0.28174726     0.95400
O531        O  0.48948201  0.83289094  0.30224140    -0.73100
O532        O  0.97729377  0.77627073  0.36109492    -0.76700
Al533      Al  0.99598918  0.82137332  0.37485621     1.49000
C534        C  0.00592871  0.75565612  0.34491791     0.90700
O535        O  0.08242887  0.84575640  0.29106936    -0.82900
O536        O  0.05501098  0.90006605  0.43649113    -0.76400
Al537      Al  0.07096727  0.82327992  0.36890722     1.90100
O538        O  0.06801500  0.90530695  0.31653816    -0.75500
O539        O  0.48027398  0.89748255  0.42275256    -0.75400
O540        O  0.99400567  0.89636935  0.30982541    -0.81000
O541        O  0.45036573  0.84582104  0.39182661    -0.79200
O542        O  0.02963285  0.85139751  0.37684723    -1.15400
O543        O  0.00240610  0.80933942  0.45038013    -0.74600
C544        C  0.03464490  0.80427311  0.47377148     0.96200
C545        C  0.08492338  0.88266506  0.28147971     0.92600
Al546      Al  0.02437853  0.89860665  0.37306658     1.55600
O547        O  0.04255187  0.76875025  0.33951608    -0.79200
C548        C  0.44972529  0.87751004  0.41638237     0.96700
C549        C  0.08972974  0.89690973  0.42436651     0.91600
O550        O  0.10206958  0.86671694  0.39899507    -0.84500
O551        O  0.10207631  0.86668360  0.60950658    -0.84000
C552        C  0.49498966  0.86574536  0.72658804     0.95400
O553        O  0.99399829  0.89636166  0.69851825    -0.73100
O554        O  0.06800756  0.90528487  0.69192000    -0.76700
Al555      Al  0.02438329  0.89858575  0.63532677     1.49000
C556        C  0.08490978  0.88264433  0.72699480     0.90700
O557        O  0.04253545  0.76875023  0.66892552    -0.82900
O558        O  0.00240052  0.80930886  0.55798638    -0.76400
Al559      Al  0.07095891  0.82325689  0.63955021     1.90100
O560        O  0.97728235  0.77624617  0.64724440    -0.75500
O561        O  0.45035566  0.84580709  0.61643259    -0.75400
O562        O  0.48943063  0.83288921  0.70608831    -0.81000
O563        O  0.48028683  0.89746251  0.58557141    -0.79200
O564        O  0.02962769  0.85137369  0.63155588    -1.15400
O565        O  0.05503235  0.90003693  0.57194958    -0.74600
C566        C  0.08974808  0.89687712  0.58412462     0.96200
C567        C  0.00591660  0.75564806  0.66349483     0.92600
Al568      Al  0.49596754  0.82135562  0.63349163     1.55600
O569        O  0.08241448  0.84573654  0.71739729    -0.79200
C570        C  0.44973171  0.87749383  0.59187749     0.96700
C571        C  0.03464513  0.80425578  0.53463271     0.91600
O572        O  0.06580701  0.80501496  0.56267423    -0.84500
O573        O  0.43668459  0.66497877  0.44576560    -0.84000
C574        C  0.00746860  0.60425827  0.28179677     0.95400
O575        O  0.01301136  0.63711554  0.30230334    -0.73100
O576        O  0.52519940  0.69374325  0.36116745    -0.76700
Al577      Al  0.00650166  0.64863999  0.37491005     1.49000
C578        C  0.49656755  0.71435227  0.34493973     0.90700
O579        O  0.42004847  0.62427356  0.29102647    -0.82900
O580        O  0.44745519  0.56995810  0.43646125    -0.76400
Al581      Al  0.43151768  0.64674475  0.36888403     1.90100
O582        O  0.43445263  0.56472098  0.31648467    -0.75500
O583        O  0.02219211  0.57253056  0.42280830    -0.75400
O584        O  0.50846246  0.57364025  0.30986372    -0.81000
O585        O  0.05211456  0.62418637  0.39193374    -0.79200
O586        O  0.47284657  0.61862237  0.37685664    -1.15400
O587        O  0.50009129  0.66067802  0.45042798    -0.74600
C588        C  0.46785543  0.66573872  0.47379497     0.96200
C589        C  0.41755116  0.58736660  0.28141393     0.92600
Al590      Al  0.47808896  0.57141190  0.37306917     1.55600
O591        O  0.45994272  0.70126038  0.33951761    -0.79200
C592        C  0.05274335  0.59250407  0.41649771     0.96700
C593        C  0.41273790  0.57311678  0.42429960     0.91600
O594        O  0.40040358  0.60331255  0.39892770    -0.84500
O595        O  0.40042888  0.60329650  0.60940425    -0.84000
C596        C  0.00749099  0.60422634  0.72665753     0.95400
O597        O  0.50848659  0.57361401  0.69856889    -0.73100
O598        O  0.43447349  0.56469245  0.69184825    -0.76700
Al599      Al  0.47811465  0.57139538  0.63532774     1.49000
C600        C  0.41756129  0.58733051  0.72690842     0.90700
O601        O  0.45994853  0.70124262  0.66892252    -0.82900
O602        O  0.50010280  0.66067483  0.55804915    -0.76400
Al603      Al  0.43153411  0.64672435  0.63951179     1.90100
O604        O  0.52520931  0.69373125  0.64735815    -0.75500
O605        O  0.05213865  0.62417721  0.61658627    -0.75400
O606        O  0.01303389  0.63708901  0.70618110    -0.81000
O607        O  0.02222146  0.57252336  0.58564603    -0.79200
O608        O  0.47286820  0.61860679  0.63157040    -1.15400
O609        O  0.44748485  0.56995045  0.57189938    -0.74600
C610        C  0.41276565  0.57310793  0.58401978     0.96200
C611        C  0.49656892  0.71434179  0.66352836     0.92600
Al612      Al  0.00652009  0.64862606  0.63357253     1.55600
O613        O  0.42006315  0.62424000  0.71733582    -0.79200
C614        C  0.05277322  0.59249008  0.59202408     0.96700
C615        C  0.46785968  0.66573560  0.53465741     0.91600
O616        O  0.43669563  0.66496904  0.56265838    -0.84500
O617        O  0.40036769  0.86662736  0.89879068    -0.84000
C618        C  0.00746736  0.86574342  0.78174115     0.95400
O619        O  0.50846085  0.89635712  0.80982995    -0.73100
O620        O  0.43444787  0.90524240  0.81641574    -0.76700
Al621      Al  0.47806619  0.89856313  0.87301434     1.49000
C622        C  0.41754477  0.88259746  0.78132858     0.90700
O623        O  0.45992946  0.76869478  0.83940379    -0.82900
O624        O  0.50003898  0.80929827  0.95032181    -0.76400
Al625      Al  0.43149257  0.82320909  0.86875372     1.90100
O626        O  0.52518381  0.77625687  0.86106781    -0.75500
O627        O  0.05208273  0.84582405  0.89189017    -0.75400
O628        O  0.01301866  0.83288599  0.80222223    -0.81000
O629        O  0.52215380  0.89746132  0.92277938    -0.79200
O630        O  0.47282192  0.85134950  0.87676268    -1.15400
O631        O  0.44741015  0.89999184  0.93638454    -0.74600
C632        C  0.41269612  0.89682330  0.92419477     0.96200
C633        C  0.49655435  0.75562267  0.84485363     0.92600
Al634      Al  0.00647731  0.82134783  0.87481588     1.55600
O635        O  0.42004421  0.84568705  0.79090287    -0.79200
C636        C  0.05270708  0.87750798  0.91646256     0.96700
C637        C  0.46779274  0.80423483  0.97367451     0.91600
O638        O  0.43663235  0.80498116  0.94563059    -0.84500
O639        O  0.43662466  0.80500510  0.06254435    -0.84000
C640        C  0.00742798  0.86576064  0.22658127     0.95400
O641        O  0.01295489  0.83290696  0.20606911    -0.73100
O642        O  0.52515375  0.77629479  0.14721000    -0.76700
Al643      Al  0.00644525  0.82138356  0.13345379     1.49000
C644        C  0.49653028  0.75566863  0.16343131     0.90700
O645        O  0.42000425  0.84573068  0.21726204    -0.82900
O646        O  0.44741980  0.90004152  0.07184679    -0.76400
Al647      Al  0.43147091  0.82324966  0.13941928     1.90100
O648        O  0.43441270  0.90528513  0.19180098    -0.75500
O649        O  0.02215592  0.89750641  0.08559018    -0.75400
O650        O  0.50841984  0.89638271  0.19852079    -0.81000
O651        O  0.05206047  0.84585517  0.11648696    -0.79200
O652        O  0.47280091  0.85139145  0.13147561    -1.15400
O653        O  0.50002984  0.80934257  0.05792883    -0.74600
C654        C  0.46779176  0.80425518  0.03453856     0.96200
C655        C  0.41750468  0.88263907  0.22685635     0.92600
Al656      Al  0.47805123  0.89860409  0.13527397     1.55600
O657        O  0.45990198  0.76873877  0.16882501    -0.79200
C658        C  0.05270124  0.87754409  0.09194411     0.96700
C659        C  0.41270190  0.89687275  0.08397881     0.91600
O660        O  0.40036147  0.86667065  0.10933482    -0.84500
O661        O  0.10209475  0.60333793  0.89904706    -0.84000
C662        C  0.49502674  0.60421409  0.78180539     0.95400
O663        O  0.99404113  0.57359510  0.80987263    -0.73100
O664        O  0.06805247  0.56471062  0.81659635    -0.76700
Al665      Al  0.02440984  0.57139222  0.87311733     1.49000
C666        C  0.08496292  0.58735404  0.78153940     0.90700
O667        O  0.04254690  0.70124598  0.83951499    -0.82900
O668        O  0.00241833  0.66066728  0.95042391    -0.76400
Al669      Al  0.07098026  0.64674988  0.86894224     1.90100
O670        O  0.97729405  0.69370082  0.86112742    -0.75500
O671        O  0.45038727  0.62413697  0.89190186    -0.75400
O672        O  0.48947120  0.63706658  0.80230357    -0.81000
O673        O  0.98030237  0.57249011  0.92279859    -0.79200
O674        O  0.02965090  0.61860764  0.87689281    -1.15400
O675        O  0.05504070  0.56996869  0.93654636    -0.74600
C676        C  0.08975880  0.57313927  0.92441641     0.96200
C677        C  0.00592162  0.71432127  0.84490316     0.92600
Al678      Al  0.99599579  0.64860952  0.87490808     1.55600
O679        O  0.08245356  0.62426240  0.79111578    -0.79200
C680        C  0.44975318  0.59244680  0.91644239     0.96700
C681        C  0.03466138  0.66575160  0.97380968     0.91600
O682        O  0.06582329  0.66500460  0.94580206    -0.84500
O683        O  0.06583180  0.66500888  0.06270476    -0.84000
C684        C  0.49501704  0.60425683  0.22663164     0.95400
O685        O  0.48947754  0.63711305  0.20614003    -0.73100
O686        O  0.97728402  0.69372708  0.14727835    -0.76700
Al687      Al  0.99600150  0.64864159  0.13354097     1.49000
C688        C  0.00591005  0.71436939  0.16348146     0.90700
O689        O  0.08243833  0.62431590  0.21744212    -0.82900
O690        O  0.05505540  0.56999302  0.07197329    -0.76400
Al691      Al  0.07098058  0.64678512  0.13958334     1.90100
O692        O  0.06803973  0.56475620  0.19194784    -0.75500
O693        O  0.48031666  0.57252337  0.08560192    -0.75400
O694        O  0.99402576  0.57363982  0.19854953    -0.81000
O695        O  0.45039627  0.62416525  0.11649025    -0.79200
O696        O  0.02965329  0.61863984  0.13158867    -1.15400
O697        O  0.00242518  0.66068402  0.05803076    -0.74600
C698        C  0.03466391  0.66575718  0.03467104     0.96200
C699        C  0.08494154  0.58740705  0.22703055     0.92600
Al700      Al  0.02441086  0.57142730  0.13535453     1.55600
O701        O  0.04254006  0.70130597  0.16892652    -0.79200
C702        C  0.44976704  0.59248271  0.09191767     0.96700
C703        C  0.08977069  0.57316127  0.08415307     0.91600
O704        O  0.10210357  0.60336065  0.10954656    -0.84500
O705        O  0.82124170  0.42039895  0.44563610    -0.84000
C706        C  0.88198916  0.49123319  0.28170967     0.95400
O707        O  0.84913193  0.99676667  0.30219033    -0.73100
O708        O  0.79251927  0.50895619  0.36104117    -0.76700
Al709      Al  0.83760402  0.49023768  0.37478726     1.49000
C710        C  0.77186911  0.48032774  0.34487260     0.90700
O711        O  0.86193009  0.40380970  0.29091783    -0.82900
O712        O  0.91625298  0.43118838  0.43639623    -0.76400
Al713      Al  0.83946244  0.41525986  0.36876825     1.90100
O714        O  0.92149073  0.41820702  0.31642961    -0.75500
O715        O  0.91372281  0.50592872  0.42274413    -0.75400
O716        O  0.91260605  0.49222190  0.30980184    -0.81000
O717        O  0.86207841  0.03584567  0.39183404    -0.79200
O718        O  0.86760681  0.45658920  0.37675858    -1.15400
O719        O  0.82556071  0.48380610  0.45029526    -0.74600
C720        C  0.82048615  0.45156537  0.47365978     0.96200
C721        C  0.89883964  0.40130541  0.28134531     0.92600
Al722      Al  0.91481903  0.46183458  0.37300631     1.55600
O723        O  0.78493206  0.44369845  0.33942637    -0.79200
C724        C  0.89376410  0.03647804  0.41640811     0.96700
C725        C  0.91308667  0.39647299  0.42422509     0.91600
O726        O  0.88289046  0.38413899  0.39881920    -0.84500
O727        O  0.88289359  0.38412866  0.60932682    -0.84000
C728        C  0.88201291  0.49120354  0.72651726     0.95400
O729        O  0.91263427  0.49218757  0.69846482    -0.73100
O730        O  0.92152347  0.41817879  0.69178039    -0.76700
Al731      Al  0.91484103  0.46181594  0.63523457     1.49000
C732        C  0.89888039  0.40126969  0.72683679     0.90700
O733        O  0.78499835  0.44368508  0.66883689    -0.82900
O734        O  0.82556495  0.48380826  0.55789200    -0.76400
Al735      Al  0.83948392  0.41524751  0.63941068     1.90100
O736        O  0.79252977  0.50893310  0.64716746    -0.75500
O737        O  0.86209586  0.03584035  0.61638778    -0.75400
O738        O  0.84916407  0.99676610  0.70600226    -0.81000
O739        O  0.91374357  0.50592039  0.58552865    -0.79200
O740        O  0.86762522  0.45657536  0.63144419    -1.15400
O741        O  0.91626855  0.43117823  0.57182204    -0.74600
C742        C  0.91309635  0.39646130  0.58396981     0.96200
C743        C  0.77192071  0.48030995  0.66344287     0.92600
Al744      Al  0.83762289  0.49023440  0.63340000     1.55600
O745        O  0.86197305  0.40377639  0.71724508    -0.79200
C746        C  0.89378643  0.03647078  0.59185775     0.96700
C747        C  0.82048198  0.45156504  0.53451928     0.91600
O748        O  0.82122432  0.42040379  0.56254097    -0.84500
O749        O  0.68124771  0.04960714  0.44587750    -0.84000
C750        C  0.62047744  0.47881985  0.28185197     0.95400
O751        O  0.65333053  0.47328248  0.30237083    -0.73100
O752        O  0.70995143  0.96108525  0.36123001    -0.76700
Al753      Al  0.66486130  0.47979224  0.37498368     1.49000
C754        C  0.73056947  0.98970681  0.34497486     0.90700
O755        O  0.64051508  0.06624371  0.29114267    -0.82900
O756        O  0.58621204  0.03882906  0.43655681    -0.76400
Al757      Al  0.66299934  0.05477026  0.36899241     1.90100
O758        O  0.58096197  0.05183682  0.31659225    -0.75500
O759        O  0.58874046  0.46409494  0.42284141    -0.75400
O760        O  0.58985660  0.47782871  0.30990547    -0.81000
O761        O  0.64038639  0.43418226  0.39196561    -0.79200
O762        O  0.63485646  0.01344274  0.37694362    -1.15400
O763        O  0.67690682  0.98620239  0.45050756    -0.74600
C764        C  0.68199055  0.01843859  0.47389324     0.96200
C765        C  0.60360714  0.06874372  0.28153577     0.92600
Al766      Al  0.58764285  0.00819794  0.37313964     1.55600
O767        O  0.71749824  0.02633546  0.33958382    -0.79200
C768        C  0.60870114  0.43354789  0.41650941     0.96700
C769        C  0.58938051  0.07354606  0.42441235     0.91600
O770        O  0.61958371  0.08588471  0.39906313    -0.84500
O771        O  0.61960153  0.08585332  0.60959971    -0.84000
C772        C  0.62049057  0.47876554  0.72670972     0.95400
O773        O  0.58987826  0.47776803  0.69860886    -0.73100
O774        O  0.58099167  0.05178159  0.69197720    -0.76700
Al775      Al  0.58766979  0.00815702  0.63540688     1.49000
C776        C  0.60363749  0.06868670  0.72706299     0.90700
O777        O  0.71755097  0.02630399  0.66900580    -0.82900
O778        O  0.67693024  0.48618790  0.55812461    -0.76400
Al779      Al  0.66302371  0.05473523  0.63965680     1.90100
O780        O  0.70997383  0.96104498  0.64739707    -0.75500
O781        O  0.64041089  0.43414496  0.61659531    -0.75400
O782        O  0.65335147  0.47322601  0.70624144    -0.81000
O783        O  0.58877179  0.46406442  0.58566991    -0.79200
O784        O  0.63488242  0.01340411  0.63166602    -1.15400
O785        O  0.58623904  0.03880512  0.57201908    -0.74600
C786        C  0.58940797  0.07352101  0.58418786     0.96200
C787        C  0.73061980  0.98967813  0.66356038     0.92600
Al788      Al  0.66488545  0.47975543  0.63364119     1.55600
O789        O  0.64054869  0.06618571  0.71750126    -0.79200
C790        C  0.60872651  0.43351373  0.59201545     0.96700
C791        C  0.68199735  0.01843394  0.53475920     0.91600
O792        O  0.68124617  0.04959499  0.56278918    -0.84500
O793        O  0.88292964  0.08580390  0.89886274    -0.84000
C794        C  0.88199185  0.47873576  0.78166764     0.95400
O795        O  0.91260236  0.47773464  0.80977002    -0.73100
O796        O  0.92152524  0.05174829  0.81645236    -0.76700
Al797      Al  0.91482450  0.00811352  0.87299348     1.49000
C798        C  0.89888567  0.06865765  0.78137862     0.90700
O799        O  0.78496346  0.02628346  0.83940380    -0.82900
O800        O  0.82555364  0.48613725  0.95026543    -0.76400
Al801      Al  0.83949669  0.05469762  0.86877650     1.90100
O802        O  0.79249143  0.96101996  0.86096707    -0.75500
O803        O  0.86204391  0.43409399  0.89174871    -0.75400
O804        O  0.84912642  0.47319829  0.80213200    -0.81000
O805        O  0.91369633  0.46401114  0.92269811    -0.79200
O806        O  0.86761444  0.01336276  0.87673625    -1.15400
O807        O  0.91627243  0.03874961  0.93640456    -0.74600
C808        C  0.91311614  0.07346798  0.92426624     0.96200
C809        C  0.77186802  0.98966256  0.84482647     0.92600
Al810      Al  0.83759488  0.47971415  0.87473979     1.55600
O811        O  0.86197493  0.06615850  0.79094398    -0.79200
C812        C  0.89372918  0.43345926  0.91632650     0.96700
C813        C  0.82049953  0.01838213  0.97364613     0.91600
O814        O  0.82126669  0.04954506  0.94563275    -0.84500
O815        O  0.82125926  0.04956199  0.06253107    -0.84000
C816        C  0.88198918  0.47878895  0.22654497     0.95400
O817        O  0.84913234  0.47324918  0.20602784    -0.73100
O818        O  0.79250009  0.96106050  0.14716711    -0.76700
Al819      Al  0.83760581  0.47975269  0.13341545     1.49000
C820        C  0.77190304  0.98969076  0.16341918     0.90700
O821        O  0.86198258  0.06621191  0.21727158    -0.82900
O822        O  0.91628830  0.03879310  0.07186261    -0.76400
Al823      Al  0.83950424  0.05473636  0.13941747     1.90100
O824        O  0.92153182  0.05180246  0.19183505    -0.75500
O825        O  0.91371539  0.46405957  0.08554999    -0.75400
O826        O  0.91260779  0.47779451  0.19848911    -0.81000
O827        O  0.86205977  0.43413859  0.11642228    -0.79200
O828        O  0.86762501  0.01340733  0.13146474    -1.15400
O829        O  0.82556581  0.98615595  0.05789205    -0.74600
C830        C  0.82050139  0.01839031  0.03451122     0.96200
C831        C  0.89888918  0.06870638  0.22689355     0.92600
Al832      Al  0.91483599  0.00816373  0.13526885     1.55600
O833        O  0.78499916  0.02631473  0.16881445    -0.79200
C834        C  0.89374259  0.43350892  0.09186926     0.96700
C835        C  0.91312909  0.07351087  0.08400805     0.91600
O836        O  0.88293186  0.08584716  0.10935995    -0.84500
O837        O  0.61953961  0.38415893  0.89901339    -0.84000
C838        C  0.62048039  0.49123390  0.78186355     0.95400
O839        O  0.58986069  0.49222286  0.80991697    -0.73100
O840        O  0.58093274  0.41821615  0.81656032    -0.76700
Al841      Al  0.58763355  0.46184747  0.87312944     1.49000
C842        C  0.60357226  0.40131003  0.78150136     0.90700
O843        O  0.71745744  0.44369474  0.83953916    -0.82900
O844        O  0.67691515  0.48383935  0.95048765    -0.76400
Al845      Al  0.66296293  0.41527251  0.86894966     1.90100
O846        O  0.70997635  0.50894522  0.86122147    -0.75500
O847        O  0.64041555  0.03587662  0.89200705    -0.75400
O848        O  0.65333300  0.99679331  0.80237958    -0.81000
O849        O  0.58875646  0.50594991  0.92285857    -0.79200
O850        O  0.63484630  0.45660332  0.87692253    -1.15400
O851        O  0.58617904  0.43120590  0.93652505    -0.74600
C852        C  0.58934220  0.39648864  0.92437137     0.96200
C853        C  0.73056226  0.48031379  0.84494215     0.92600
Al854      Al  0.66486594  0.49026395  0.87498148     1.55600
O855        O  0.64047860  0.40380630  0.79110928    -0.79200
C856        C  0.60872641  0.03650358  0.91654425     0.96700
C857        C  0.68197721  0.45159650  0.97385256     0.91600
O858        O  0.68121864  0.42043350  0.94582369    -0.84500
O859        O  0.68119760  0.42043292  0.06272091    -0.84000
C860        C  0.62048810  0.49125834  0.22668844     0.95400
O861        O  0.65334959  0.99678600  0.20620907    -0.73100
O862        O  0.70997263  0.50896769  0.14736234    -0.76700
Al863      Al  0.66487161  0.49026747  0.13360433     1.49000
C864        C  0.73059877  0.48033052  0.16351465     0.90700
O865        O  0.64049975  0.40383226  0.21741990    -0.82900
O866        O  0.58618824  0.43123285  0.07196400    -0.76400
Al867      Al  0.66297054  0.41528666  0.13957991     1.90100
O868        O  0.58094619  0.41823767  0.19192362    -0.75500
O869        O  0.58876381  0.50597243  0.08566367    -0.75400
O870        O  0.58987214  0.49225079  0.19859632    -0.81000
O871        O  0.64042264  0.03588714  0.11659273    -0.79200
O872        O  0.63485109  0.45662050  0.13161706    -1.15400
O873        O  0.67690841  0.48384081  0.05808876    -0.74600
C874        C  0.68196880  0.45160050  0.03471124     0.96200
C875        C  0.60359053  0.40133321  0.22699697     0.92600
Al876      Al  0.58764183  0.46187089  0.13537323     1.55600
O877        O  0.71750797  0.44370710  0.16894229    -0.79200
C878        C  0.60873469  0.03652328  0.09202366     0.96700
C879        C  0.58934176  0.39651537  0.08410841     0.91600
O880        O  0.61953111  0.38417806  0.10950513    -0.84500
O881        O  0.56581323  0.30504261  0.44577149    -0.84000
C882        C  0.99500186  0.36575145  0.28174730     0.95400
O883        O  0.98948190  0.33289094  0.30224136    -0.73100
O884        O  0.47729378  0.27627067  0.36109488    -0.76700
Al885      Al  0.49598911  0.32137330  0.37485611     1.49000
C886        C  0.50592875  0.25565610  0.34491792     0.90700
O887        O  0.58242876  0.34575638  0.29106928    -0.82900
O888        O  0.55501095  0.40006605  0.43649100    -0.76400
Al889      Al  0.57096722  0.32327991  0.36890714     1.90100
O890        O  0.56801503  0.40530694  0.31653810    -0.75500
O891        O  0.98027395  0.39748248  0.42275266    -0.75400
O892        O  0.49400555  0.39636929  0.30982535    -0.81000
O893        O  0.95036566  0.34582100  0.39182663    -0.79200
O894        O  0.52963279  0.35139747  0.37684715    -1.15400
O895        O  0.50240603  0.30933946  0.45038011    -0.74600
C896        C  0.53464489  0.30427318  0.47377142     0.96200
C897        C  0.58492339  0.38266502  0.28147965     0.92600
Al898      Al  0.52437848  0.39860662  0.37306648     1.55600
O899        O  0.54255190  0.26875026  0.33951609    -0.79200
C900        C  0.94972524  0.37750999  0.41638238     0.96700
C901        C  0.58972973  0.39690970  0.42436639     0.91600
O902        O  0.60206954  0.36671692  0.39899496    -0.84500
O903        O  0.60207632  0.36668359  0.60950657    -0.84000
C904        C  0.99498967  0.36574538  0.72658803     0.95400
O905        O  0.49399830  0.39636173  0.69851812    -0.73100
O906        O  0.56800754  0.40528484  0.69191999    -0.76700
Al907      Al  0.52438330  0.39858575  0.63532667     1.49000
C908        C  0.58490974  0.38264429  0.72699483     0.90700
O909        O  0.54253545  0.26875020  0.66892529    -0.82900
O910        O  0.50240060  0.30930890  0.55798636    -0.76400
Al911      Al  0.57095893  0.32325688  0.63955015     1.90100
O912        O  0.47728237  0.27624618  0.64724418    -0.75500
O913        O  0.95035557  0.34580709  0.61643259    -0.75400
O914        O  0.98943061  0.33288927  0.70608830    -0.81000
O915        O  0.98028682  0.39746245  0.58557137    -0.79200
O916        O  0.52962772  0.35137370  0.63155585    -1.15400
O917        O  0.55503235  0.40003691  0.57194958    -0.74600
C918        C  0.58974811  0.39687710  0.58412464     0.96200
C919        C  0.50591657  0.25564806  0.66349463     0.92600
Al920      Al  0.99596748  0.32135566  0.63349162     1.55600
O921        O  0.58241447  0.34573650  0.71739728    -0.79200
C922        C  0.94973168  0.37749382  0.59187744     0.96700
C923        C  0.53464518  0.30425583  0.53463265     0.91600
O924        O  0.56580708  0.30501496  0.56267417    -0.84500
O925        O  0.93668450  0.16497874  0.44576561    -0.84000
C926        C  0.50746862  0.10425825  0.28179677     0.95400
O927        O  0.51301126  0.13711553  0.30230335    -0.73100
O928        O  0.02519946  0.19374321  0.36116752    -0.76700
Al929      Al  0.50650165  0.14863996  0.37491006     1.49000
C930        C  0.99656759  0.21435224  0.34493985     0.90700
O931        O  0.92004848  0.12427358  0.29102647    -0.82900
O932        O  0.94745519  0.06995813  0.43646126    -0.76400
Al933      Al  0.93151764  0.14674474  0.36888408     1.90100
O934        O  0.93445251  0.06472101  0.31648479    -0.75500
O935        O  0.52219211  0.07253052  0.42280830    -0.75400
O936        O  0.00846235  0.07364023  0.30986385    -0.81000
O937        O  0.55211455  0.12418634  0.39193373    -0.79200
O938        O  0.97284654  0.11862236  0.37685675    -1.15400
O939        O  0.00009122  0.16067803  0.45042801    -0.74600
C940        C  0.96785542  0.16573870  0.47379498     0.96200
C941        C  0.91755110  0.08736664  0.28141399     0.92600
Al942      Al  0.97808891  0.07141190  0.37306926     1.55600
O943        O  0.95994274  0.20126037  0.33951771    -0.79200
C944        C  0.55274332  0.09250401  0.41649776     0.96700
C945        C  0.91273788  0.07311679  0.42429962     0.91600
O946        O  0.90040351  0.10331254  0.39892773    -0.84500
O947        O  0.90042888  0.10329649  0.60940440    -0.84000
C948        C  0.50749099  0.10422631  0.72665753     0.95400
O949        O  0.00848666  0.07361398  0.69856889    -0.73100
O950        O  0.93447354  0.06469245  0.69184830    -0.76700
Al951      Al  0.97811468  0.07139536  0.63532774     1.49000
C952        C  0.91756136  0.08733050  0.72690851     0.90700
O953        O  0.95994850  0.20124260  0.66892248    -0.82900
O954        O  0.00010276  0.16067485  0.55804918    -0.76400
Al955      Al  0.93153412  0.14672432  0.63951185     1.90100
O956        O  0.02520933  0.19373122  0.64735841    -0.75500
O957        O  0.55213859  0.12417717  0.61658626    -0.75400
O958        O  0.51303394  0.13708897  0.70618109    -0.81000
O959        O  0.52222143  0.07252331  0.58564603    -0.79200
O960        O  0.97286823  0.11860678  0.63157040    -1.15400
O961        O  0.94748480  0.06995040  0.57189944    -0.74600
C962        C  0.91276564  0.07310790  0.58401989     0.96200
C963        C  0.99656890  0.21434177  0.66352845     0.92600
Al964      Al  0.50652010  0.14862605  0.63357253     1.55600
O965        O  0.92006326  0.12423998  0.71733596    -0.79200
C966        C  0.55277320  0.09249005  0.59202410     0.96700
C967        C  0.96785956  0.16573558  0.53465742     0.91600
O968        O  0.93669558  0.16496899  0.56265840    -0.84500
O969        O  0.90036769  0.36662742  0.89879068    -0.84000
C970        C  0.50746721  0.36574345  0.78174112     0.95400
O971        O  0.00846071  0.39635712  0.80982996    -0.73100
O972        O  0.93444784  0.40524246  0.81641575    -0.76700
Al973      Al  0.97806615  0.39856314  0.87301434     1.49000
C974        C  0.91754477  0.38259749  0.78132857     0.90700
O975        O  0.95992946  0.26869478  0.83940385    -0.82900
O976        O  0.00003904  0.30929840  0.95032186    -0.76400
Al977      Al  0.93149259  0.32320912  0.86875373     1.90100
O978        O  0.02518381  0.27625685  0.86106782    -0.75500
O979        O  0.55208270  0.34582404  0.89189012    -0.75400
O980        O  0.51301849  0.33288597  0.80222217    -0.81000
O981        O  0.02215380  0.39746130  0.92277936    -0.79200
O982        O  0.97282193  0.35134950  0.87676263    -1.15400
O983        O  0.94741014  0.39999186  0.93638458    -0.74600
C984        C  0.91269611  0.39682336  0.92419477     0.96200
C985        C  0.99655437  0.25562266  0.84485365     0.92600
Al986      Al  0.50647726  0.32134785  0.87481588     1.55600
O987        O  0.92004427  0.34568709  0.79090287    -0.79200
C988        C  0.55270710  0.37750796  0.91646255     0.96700
C989        C  0.96779278  0.30423493  0.97367456     0.91600
O990        O  0.93663242  0.30498129  0.94563062    -0.84500
O991        O  0.93662464  0.30500508  0.06254436    -0.84000
C992        C  0.50742806  0.36576073  0.22658117     0.95400
O993        O  0.51295498  0.33290713  0.20606892    -0.73100
O994        O  0.02515378  0.27629480  0.14721006    -0.76700
Al995      Al  0.50644531  0.32138362  0.13345370     1.49000
C996        C  0.99653031  0.25566865  0.16343136     0.90700
O997        O  0.92000427  0.34573066  0.21726205    -0.82900
O998        O  0.94741972  0.40004148  0.07184675    -0.76400
Al999      Al  0.93147094  0.32324965  0.13941929     1.90100
O1000       O  0.93441268  0.40528511  0.19180099    -0.75500
O1001       O  0.52215595  0.39750641  0.08559019    -0.75400
O1002       O  0.00841972  0.39638286  0.19852083    -0.81000
O1003       O  0.55206053  0.34585518  0.11648693    -0.79200
O1004       O  0.97280091  0.35139148  0.13147565    -1.15400
O1005       O  0.00002982  0.30934257  0.05792897    -0.74600
C1006       C  0.96779178  0.30425517  0.03453862     0.96200
C1007       C  0.91750466  0.38263903  0.22685635     0.92600
Al1008     Al  0.97805116  0.39860412  0.13527396     1.55600
O1009       O  0.95990201  0.26873880  0.16882501    -0.79200
C1010       C  0.55270128  0.37754407  0.09194411     0.96700
C1011       C  0.91270180  0.39687270  0.08397884     0.91600
O1012       O  0.90036144  0.36667062  0.10933486    -0.84500
O1013       O  0.60209472  0.10333788  0.89904685    -0.84000
C1014       C  0.99502661  0.10421406  0.78180538     0.95400
O1015       O  0.49404117  0.07359507  0.80987262    -0.73100
O1016       O  0.56805250  0.06471058  0.81659638    -0.76700
Al1017     Al  0.52440984  0.07139218  0.87311734     1.49000
C1018       C  0.58496286  0.08735402  0.78153938     0.90700
O1019       O  0.54254685  0.20124598  0.83951496    -0.82900
O1020       O  0.50241837  0.16066730  0.95042390    -0.76400
Al1021     Al  0.57098020  0.14674986  0.86894218     1.90100
O1022       O  0.47729404  0.19370078  0.86112744    -0.75500
O1023       O  0.95038725  0.12413696  0.89190189    -0.75400
O1024       O  0.98947105  0.13706655  0.80230356    -0.81000
O1025       O  0.48030234  0.07249007  0.92279856    -0.79200
O1026       O  0.52965087  0.11860759  0.87689286    -1.15400
O1027       O  0.55504070  0.06996869  0.93654635    -0.74600
C1028       C  0.58975879  0.07313925  0.92441633     0.96200
C1029       C  0.50592158  0.21432125  0.84490315     0.92600
Al1030     Al  0.49599582  0.14860950  0.87490809     1.55600
O1031       O  0.58245336  0.12426238  0.79111569    -0.79200
C1032       C  0.94975320  0.09244681  0.91644240     0.96700
C1033       C  0.53466135  0.16575167  0.97380967     0.91600
O1034       O  0.56582333  0.16500461  0.94580207    -0.84500
O1035       O  0.56583173  0.16500885  0.06270477    -0.84000
C1036       C  0.99501704  0.10425677  0.22663174     0.95400
O1037       O  0.98947756  0.13711299  0.20614016    -0.73100
O1038       O  0.47728407  0.19372707  0.14727840    -0.76700
Al1039     Al  0.49600152  0.14864161  0.13354097     1.49000
C1040       C  0.50591011  0.21436939  0.16348147     0.90700
O1041       O  0.58243840  0.12431589  0.21744210    -0.82900
O1042       O  0.55505536  0.06999303  0.07197325    -0.76400
Al1043     Al  0.57098058  0.14678511  0.13958333     1.90100
O1044       O  0.56803979  0.06475619  0.19194784    -0.75500
O1045       O  0.98031651  0.07252331  0.08560217    -0.75400
O1046       O  0.49402583  0.07363979  0.19854953    -0.81000
O1047       O  0.95039614  0.12416526  0.11649031    -0.79200
O1048       O  0.52965330  0.11863984  0.13158865    -1.15400
O1049       O  0.50242510  0.16068417  0.05803075    -0.74600
C1050       C  0.53466389  0.16575727  0.03467104     0.96200
C1051       C  0.58494161  0.08740704  0.22703052     0.92600
Al1052     Al  0.52441089  0.07142728  0.13535452     1.55600
O1053       O  0.54254011  0.20130596  0.16892653    -0.79200
C1054       C  0.94976692  0.09248268  0.09191775     0.96700
C1055       C  0.58977060  0.07316127  0.08415301     0.91600
O1056       O  0.60210351  0.10336067  0.10954657    -0.84500
O1057       O  0.82124175  0.92039897  0.44563613    -0.84000
C1058       C  0.88198914  0.99123321  0.28170971     0.95400
O1059       O  0.84913189  0.49676664  0.30219029    -0.73100
O1060       O  0.79251926  0.00895622  0.36104118    -0.76700
Al1061     Al  0.83760406  0.99023773  0.37478728     1.49000
C1062       C  0.77186909  0.98032774  0.34487268     0.90700
O1063       O  0.86193008  0.90380973  0.29091783    -0.82900
O1064       O  0.91625305  0.93118842  0.43639623    -0.76400
Al1065     Al  0.83946247  0.91525987  0.36876830     1.90100
O1066       O  0.92149073  0.91820704  0.31642961    -0.75500
O1067       O  0.91372298  0.00592876  0.42274409    -0.75400
O1068       O  0.91260609  0.99222193  0.30980187    -0.81000
O1069       O  0.86207826  0.53584566  0.39183404    -0.79200
O1070       O  0.86760683  0.95658923  0.37675860    -1.15400
O1071       O  0.82556074  0.98380613  0.45029527    -0.74600
C1072       C  0.82048614  0.95156540  0.47365979     0.96200
C1073       C  0.89883965  0.90130544  0.28134530     0.92600
Al1074     Al  0.91481908  0.96183460  0.37300630     1.55600
O1075       O  0.78493204  0.94369845  0.33942661    -0.79200
C1076       C  0.89376396  0.53647803  0.41640810     0.96700
C1077       C  0.91308675  0.89647304  0.42422511     0.91600
O1078       O  0.88289054  0.88413902  0.39881918    -0.84500
O1079       O  0.88289362  0.88412869  0.60932678    -0.84000
C1080       C  0.88201293  0.99120355  0.72651731     0.95400
O1081       O  0.91263423  0.99218761  0.69846480    -0.73100
O1082       O  0.92152353  0.91817883  0.69178042    -0.76700
Al1083     Al  0.91484102  0.96181596  0.63523457     1.49000
C1084       C  0.89888046  0.90126966  0.72683678     0.90700
O1085       O  0.78499838  0.94368508  0.66883702    -0.82900
O1086       O  0.82556498  0.98380828  0.55789201    -0.76400
Al1087     Al  0.83948392  0.91524749  0.63941068     1.90100
O1088       O  0.79252979  0.00893312  0.64716754    -0.75500
O1089       O  0.86209584  0.53584037  0.61638769    -0.75400
O1090       O  0.84916409  0.49676608  0.70600212    -0.81000
O1091       O  0.91374354  0.00592037  0.58552860    -0.79200
O1092       O  0.86762520  0.95657537  0.63144422    -1.15400
O1093       O  0.91626862  0.93117824  0.57182205    -0.74600
C1094       C  0.91309641  0.89646133  0.58396982     0.96200
C1095       C  0.77192073  0.98030996  0.66344299     0.92600
Al1096     Al  0.83762288  0.99023441  0.63340006     1.55600
O1097       O  0.86197313  0.90377625  0.71724503    -0.79200
C1098       C  0.89378647  0.53647080  0.59185775     0.96700
C1099       C  0.82048195  0.95156508  0.53451928     0.91600
O1100       O  0.82122421  0.92040383  0.56254099    -0.84500
O1101       O  0.68124774  0.54960711  0.44587749    -0.84000
C1102       C  0.62047744  0.97881983  0.28185197     0.95400
O1103       O  0.65333054  0.97328233  0.30237082    -0.73100
O1104       O  0.70995143  0.46108523  0.36123000    -0.76700
Al1105     Al  0.66486130  0.97979222  0.37498368     1.49000
C1106       C  0.73056949  0.48970677  0.34497485     0.90700
O1107       O  0.64051514  0.56624370  0.29114268    -0.82900
O1108       O  0.58621205  0.53882908  0.43655680    -0.76400
Al1109     Al  0.66299938  0.55477021  0.36899243     1.90100
O1110       O  0.58096204  0.55183672  0.31659218    -0.75500
O1111       O  0.58874051  0.96409496  0.42284140    -0.75400
O1112       O  0.58985664  0.97782874  0.30990546    -0.81000
O1113       O  0.64038644  0.93418225  0.39196565    -0.79200
O1114       O  0.63485645  0.51344269  0.37694366    -1.15400
O1115       O  0.67690677  0.48620237  0.45050758    -0.74600
C1116       C  0.68199051  0.51843856  0.47389325     0.96200
C1117       C  0.60360720  0.56874370  0.28153576     0.92600
Al1118     Al  0.58764285  0.50819790  0.37313965     1.55600
O1119       O  0.71749828  0.52633543  0.33958382    -0.79200
C1120       C  0.60870119  0.93354790  0.41650942     0.96700
C1121       C  0.58938048  0.57354602  0.42441228     0.91600
O1122       O  0.61958375  0.58588470  0.39906312    -0.84500
O1123       O  0.61960161  0.58585334  0.60959968    -0.84000
C1124       C  0.62049060  0.97876556  0.72670973     0.95400
O1125       O  0.58987827  0.97776803  0.69860884    -0.73100
O1126       O  0.58099168  0.55178160  0.69197717    -0.76700
Al1127     Al  0.58766980  0.50815703  0.63540688     1.49000
C1128       C  0.60363750  0.56868672  0.72706293     0.90700
O1129       O  0.71755101  0.52630398  0.66900577    -0.82900
O1130       O  0.67693024  0.98618789  0.55812460    -0.76400
Al1131     Al  0.66302376  0.55473523  0.63965676     1.90100
O1132       O  0.70997382  0.46104497  0.64739707    -0.75500
O1133       O  0.64041084  0.93414495  0.61659538    -0.75400
O1134       O  0.65335147  0.97322604  0.70624146    -0.81000
O1135       O  0.58877180  0.96406444  0.58566986    -0.79200
O1136       O  0.63488244  0.51340411  0.63166602    -1.15400
O1137       O  0.58623911  0.53880514  0.57201907    -0.74600
C1138       C  0.58940803  0.57352103  0.58418786     0.96200
C1139       C  0.73061981  0.48967812  0.66356033     0.92600
Al1140     Al  0.66488544  0.97975543  0.63364119     1.55600
O1141       O  0.64054872  0.56618576  0.71750112    -0.79200
C1142       C  0.60872651  0.93351373  0.59201543     0.96700
C1143       C  0.68199735  0.51843394  0.53475920     0.91600
O1144       O  0.68124625  0.54959498  0.56278917    -0.84500
O1145       O  0.88292968  0.58580384  0.89886269    -0.84000
C1146       C  0.88199192  0.97873576  0.78166770     0.95400
O1147       O  0.91260246  0.97773465  0.80977009    -0.73100
O1148       O  0.92152531  0.55174830  0.81645233    -0.76700
Al1149     Al  0.91482447  0.50811353  0.87299339     1.49000
C1150       C  0.89888574  0.56865764  0.78137858     0.90700
O1151       O  0.78496351  0.52628343  0.83940354    -0.82900
O1152       O  0.82555368  0.98613726  0.95026547    -0.76400
Al1153     Al  0.83949672  0.55469758  0.86877637     1.90100
O1154       O  0.79249139  0.46101995  0.86096709    -0.75500
O1155       O  0.86204392  0.93409399  0.89174869    -0.75400
O1156       O  0.84912651  0.97319830  0.80213206    -0.81000
O1157       O  0.91369637  0.96401106  0.92269818    -0.79200
O1158       O  0.86761441  0.51336274  0.87673620    -1.15400
O1159       O  0.91627250  0.53874959  0.93640449    -0.74600
C1160       C  0.91311615  0.57346798  0.92426621     0.96200
C1161       C  0.77186803  0.48966255  0.84482636     0.92600
Al1162     Al  0.83759494  0.97971418  0.87473979     1.55600
O1163       O  0.86197501  0.56615837  0.79094389    -0.79200
C1164       C  0.89372914  0.93345919  0.91632653     0.96700
C1165       C  0.82049956  0.51838217  0.97364602     0.91600
O1166       O  0.82126674  0.54954506  0.94563257    -0.84500
O1167       O  0.82125921  0.54956209  0.06253092    -0.84000
C1168       C  0.88198927  0.97878896  0.22654506     0.95400
O1169       O  0.84913238  0.97324921  0.20602789    -0.73100
O1170       O  0.79250007  0.46106043  0.14716677    -0.76700
Al1171     Al  0.83760584  0.97975266  0.13341555     1.49000
C1172       C  0.77190301  0.48969067  0.16341889     0.90700
O1173       O  0.86198260  0.56621190  0.21727156    -0.82900
O1174       O  0.91628837  0.53879314  0.07186252    -0.76400
Al1175     Al  0.83950423  0.55473637  0.13941737     1.90100
O1176       O  0.92153185  0.55180246  0.19183499    -0.75500
O1177       O  0.91371542  0.96405959  0.08555008    -0.75400
O1178       O  0.91260782  0.97779453  0.19848924    -0.81000
O1179       O  0.86205980  0.93413858  0.11642231    -0.79200
O1180       O  0.86762503  0.51340733  0.13146464    -1.15400
O1181       O  0.82556580  0.48615606  0.05789198    -0.74600
C1182       C  0.82050139  0.51839038  0.03451111     0.96200
C1183       C  0.89888918  0.56870636  0.22689354     0.92600
Al1184     Al  0.91483601  0.50816373  0.13526876     1.55600
O1185       O  0.78499908  0.52631468  0.16881417    -0.79200
C1186       C  0.89374258  0.93350892  0.09186928     0.96700
C1187       C  0.91312916  0.57351090  0.08400804     0.91600
O1188       O  0.88293192  0.58584718  0.10935995    -0.84500
O1189       O  0.61953959  0.88415893  0.89901340    -0.84000
C1190       C  0.62048032  0.99123391  0.78186357     0.95400
O1191       O  0.58986066  0.99222286  0.80991696    -0.73100
O1192       O  0.58093280  0.91821616  0.81656031    -0.76700
Al1193     Al  0.58763356  0.96184747  0.87312946     1.49000
C1194       C  0.60357231  0.90131004  0.78150135     0.90700
O1195       O  0.71745746  0.94369471  0.83953915    -0.82900
O1196       O  0.67691523  0.98383927  0.95048761    -0.76400
Al1197     Al  0.66296293  0.91527249  0.86894967     1.90100
O1198       O  0.70997630  0.00894519  0.86122145    -0.75500
O1199       O  0.64041558  0.53587671  0.89200703    -0.75400
O1200       O  0.65333303  0.49679332  0.80237956    -0.81000
O1201       O  0.58875641  0.00594989  0.92285857    -0.79200
O1202       O  0.63484630  0.95660331  0.87692257    -1.15400
O1203       O  0.58617908  0.93120593  0.93652507    -0.74600
C1204       C  0.58934219  0.89648867  0.92437137     0.96200
C1205       C  0.73056224  0.98031378  0.84494217     0.92600
Al1206     Al  0.66486594  0.99026388  0.87498147     1.55600
O1207       O  0.64047865  0.90380633  0.79110926    -0.79200
C1208       C  0.60872643  0.53650362  0.91654426     0.96700
C1209       C  0.68197724  0.95159645  0.97385256     0.91600
O1210       O  0.68121866  0.92043342  0.94582371    -0.84500
O1211       O  0.68119763  0.92043291  0.06272093    -0.84000
C1212       C  0.62048816  0.99125836  0.22668844     0.95400
O1213       O  0.65334958  0.49678597  0.20620907    -0.73100
O1214       O  0.70997264  0.00896779  0.14736239    -0.76700
Al1215     Al  0.66487163  0.99026749  0.13360433     1.49000
C1216       C  0.73059878  0.98033061  0.16351474     0.90700
O1217       O  0.64049976  0.90383224  0.21741989    -0.82900
O1218       O  0.58618819  0.93123285  0.07196404    -0.76400
Al1219     Al  0.66297059  0.91528664  0.13957990     1.90100
O1220       O  0.58094621  0.91823770  0.19192363    -0.75500
O1221       O  0.58876377  0.00597244  0.08566367    -0.75400
O1222       O  0.58987217  0.99225080  0.19859632    -0.81000
O1223       O  0.64042269  0.53588714  0.11659274    -0.79200
O1224       O  0.63485114  0.95662048  0.13161704    -1.15400
O1225       O  0.67690845  0.98384082  0.05808875    -0.74600
C1226       C  0.68196880  0.95160046  0.03471124     0.96200
C1227       C  0.60359054  0.90133323  0.22699697     0.92600
Al1228     Al  0.58764185  0.96187089  0.13537325     1.55600
O1229       O  0.71750801  0.94370717  0.16894227    -0.79200
C1230       C  0.60873476  0.53652328  0.09202368     0.96700
C1231       C  0.58934175  0.89651537  0.08410843     0.91600
O1232       O  0.61953113  0.88417806  0.10950509    -0.84500
O1233       O  0.56581320  0.80504258  0.44577149    -0.84000
C1234       C  0.99500194  0.86575140  0.28174730     0.95400
O1235       O  0.98948194  0.83289098  0.30224142    -0.73100
O1236       O  0.47729370  0.77627072  0.36109487    -0.76700
Al1237     Al  0.49598913  0.82137332  0.37485617     1.49000
C1238       C  0.50592868  0.75565613  0.34491785     0.90700
O1239       O  0.58242883  0.84575640  0.29106930    -0.82900
O1240       O  0.55501100  0.90006607  0.43649099    -0.76400
Al1241     Al  0.57096723  0.82327992  0.36890716     1.90100
O1242       O  0.56801504  0.90530696  0.31653810    -0.75500
O1243       O  0.98027402  0.89748254  0.42275263    -0.75400
O1244       O  0.49400555  0.89636934  0.30982535    -0.81000
O1245       O  0.95036574  0.84582098  0.39182688    -0.79200
O1246       O  0.52963282  0.85139750  0.37684718    -1.15400
O1247       O  0.50240601  0.80933943  0.45038012    -0.74600
C1248       C  0.53464479  0.80427312  0.47377141     0.96200
C1249       C  0.58492340  0.88266505  0.28147966     0.92600
Al1250     Al  0.52437851  0.89860666  0.37306649     1.55600
O1251       O  0.54255184  0.76875026  0.33951608    -0.79200
C1252       C  0.94972531  0.87751002  0.41638246     0.96700
C1253       C  0.58972977  0.89690972  0.42436639     0.91600
O1254       O  0.60206959  0.86671693  0.39899497    -0.84500
O1255       O  0.60207625  0.86668360  0.60950660    -0.84000
C1256       C  0.99498975  0.86574535  0.72658811     0.95400
O1257       O  0.49399835  0.89636167  0.69851812    -0.73100
O1258       O  0.56800762  0.90528488  0.69191994    -0.76700
Al1259     Al  0.52438331  0.89858576  0.63532667     1.49000
C1260       C  0.58490975  0.88264431  0.72699482     0.90700
O1261       O  0.54253550  0.76875020  0.66892532    -0.82900
O1262       O  0.50240056  0.80930890  0.55798637    -0.76400
Al1263     Al  0.57095887  0.82325690  0.63955017     1.90100
O1264       O  0.47728242  0.77624614  0.64724416    -0.75500
O1265       O  0.95035560  0.84580708  0.61643263    -0.75400
O1266       O  0.98943073  0.83288921  0.70608835    -0.81000
O1267       O  0.98028685  0.89746250  0.58557162    -0.79200
O1268       O  0.52962767  0.85137371  0.63155585    -1.15400
O1269       O  0.55503235  0.90003696  0.57194953    -0.74600
C1270       C  0.58974808  0.89687712  0.58412460     0.96200
C1271       C  0.50591664  0.75564804  0.66349462     0.92600
Al1272     Al  0.99596750  0.82135562  0.63349168     1.55600
O1273       O  0.58241434  0.84573652  0.71739732    -0.79200
C1274       C  0.94973171  0.87749382  0.59187756     0.96700
C1275       C  0.53464519  0.80425579  0.53463265     0.91600
O1276       O  0.56580703  0.80501497  0.56267415    -0.84500
O1277       O  0.93668453  0.66497876  0.44576561    -0.84000
C1278       C  0.50746869  0.60425827  0.28179675     0.95400
O1279       O  0.51301129  0.63711556  0.30230333    -0.73100
O1280       O  0.02519947  0.69374323  0.36116750    -0.76700
Al1281     Al  0.50650162  0.64863999  0.37491000     1.49000
C1282       C  0.99656759  0.71435226  0.34493985     0.90700
O1283       O  0.92004853  0.62427356  0.29102646    -0.82900
O1284       O  0.94745510  0.56995809  0.43646126    -0.76400
Al1285     Al  0.93151765  0.64674474  0.36888407     1.90100
O1286       O  0.93445256  0.56472098  0.31648478    -0.75500
O1287       O  0.52219205  0.57253057  0.42280824    -0.75400
O1288       O  0.00846237  0.57364026  0.30986374    -0.81000
O1289       O  0.55211453  0.62418636  0.39193365    -0.79200
O1290       O  0.97284655  0.61862238  0.37685674    -1.15400
O1291       O  0.00009126  0.66067806  0.45042800    -0.74600
C1292       C  0.96785539  0.66573873  0.47379497     0.96200
C1293       C  0.91755114  0.58736659  0.28141400     0.92600
Al1294     Al  0.97808893  0.57141191  0.37306923     1.55600
O1295       O  0.95994274  0.70126037  0.33951774    -0.79200
C1296       C  0.55274331  0.59250405  0.41649757     0.96700
C1297       C  0.91273780  0.57311678  0.42429960     0.91600
O1298       O  0.90040348  0.60331255  0.39892769    -0.84500
O1299       O  0.90042895  0.60329651  0.60940439    -0.84000
C1300       C  0.50749106  0.60422634  0.72665752     0.95400
O1301       O  0.00848670  0.57361402  0.69856889    -0.73100
O1302       O  0.93447361  0.56469246  0.69184830    -0.76700
Al1303     Al  0.97811473  0.57139537  0.63532774     1.49000
C1304       C  0.91756142  0.58733051  0.72690850     0.90700
O1305       O  0.95994846  0.70124264  0.66892251    -0.82900
O1306       O  0.00010277  0.66067486  0.55804916    -0.76400
Al1307     Al  0.93153416  0.64672434  0.63951185     1.90100
O1308       O  0.02520924  0.69373123  0.64735838    -0.75500
O1309       O  0.55213864  0.62417719  0.61658623    -0.75400
O1310       O  0.51303403  0.63708900  0.70618107    -0.81000
O1311       O  0.52222145  0.57252334  0.58564604    -0.79200
O1312       O  0.97286825  0.61860678  0.63157034    -1.15400
O1313       O  0.94748486  0.56995040  0.57189944    -0.74600
C1314       C  0.91276568  0.57310792  0.58401991     0.96200
C1315       C  0.99656881  0.71434181  0.66352849     0.92600
Al1316     Al  0.50652013  0.64862605  0.63357248     1.55600
O1317       O  0.92006332  0.62423999  0.71733597    -0.79200
C1318       C  0.55277325  0.59249006  0.59202410     0.96700
C1319       C  0.96785965  0.66573560  0.53465741     0.91600
O1320       O  0.93669560  0.66496902  0.56265840    -0.84500
O1321       O  0.90036766  0.86662736  0.89879065    -0.84000
C1322       C  0.50746728  0.86574343  0.78174111     0.95400
O1323       O  0.00846076  0.89635712  0.80982998    -0.73100
O1324       O  0.93444791  0.90524241  0.81641575    -0.76700
Al1325     Al  0.97806616  0.89856312  0.87301436     1.49000
C1326       C  0.91754485  0.88259746  0.78132856     0.90700
O1327       O  0.95992944  0.76869477  0.83940382    -0.82900
O1328       O  0.00003899  0.80929828  0.95032181    -0.76400
Al1329     Al  0.93149254  0.82320908  0.86875372     1.90100
O1330       O  0.02518379  0.77625688  0.86106780    -0.75500
O1331       O  0.55208270  0.84582407  0.89189016    -0.75400
O1332       O  0.51301859  0.83288599  0.80222219    -0.81000
O1333       O  0.02215380  0.89746129  0.92277937    -0.79200
O1334       O  0.97282188  0.85134949  0.87676265    -1.15400
O1335       O  0.94741010  0.89999184  0.93638458    -0.74600
C1336       C  0.91269609  0.89682330  0.92419480     0.96200
C1337       C  0.99655430  0.75562266  0.84485363     0.92600
Al1338     Al  0.50647731  0.82134783  0.87481589     1.55600
O1339       O  0.92004428  0.84568705  0.79090286    -0.79200
C1340       C  0.55270708  0.87750801  0.91646256     0.96700
C1341       C  0.96779277  0.80423483  0.97367455     0.91600
O1342       O  0.93663237  0.80498115  0.94563063    -0.84500
O1343       O  0.93662469  0.80500510  0.06254437    -0.84000
C1344       C  0.50742789  0.86576063  0.22658124     0.95400
O1345       O  0.51295481  0.83290696  0.20606908    -0.73100
O1346       O  0.02515365  0.77629478  0.14721002    -0.76700
Al1347     Al  0.50644526  0.82138356  0.13345372     1.49000
C1348       C  0.99653019  0.75566863  0.16343130     0.90700
O1349       O  0.92000433  0.84573069  0.21726205    -0.82900
O1350       O  0.94741977  0.90004154  0.07184677    -0.76400
Al1351     Al  0.93147096  0.82324968  0.13941929     1.90100
O1352       O  0.93441276  0.90528513  0.19180101    -0.75500
O1353       O  0.52215593  0.89750642  0.08559020    -0.75400
O1354       O  0.00841982  0.89638272  0.19852080    -0.81000
O1355       O  0.55206048  0.84585519  0.11648698    -0.79200
O1356       O  0.97280096  0.85139147  0.13147562    -1.15400
O1357       O  0.00002985  0.80934257  0.05792895    -0.74600
C1358       C  0.96779178  0.80425517  0.03453862     0.96200
C1359       C  0.91750470  0.88263906  0.22685635     0.92600
Al1360     Al  0.97805124  0.89860410  0.13527397     1.55600
O1361       O  0.95990190  0.76873877  0.16882501    -0.79200
C1362       C  0.55270126  0.87754407  0.09194413     0.96700
C1363       C  0.91270189  0.89687275  0.08397881     0.91600
O1364       O  0.90036150  0.86667065  0.10933487    -0.84500
O1365       O  0.60209468  0.60333790  0.89904683    -0.84000
C1366       C  0.99502664  0.60421408  0.78180540     0.95400
O1367       O  0.49404119  0.57359511  0.80987260    -0.73100
O1368       O  0.56805252  0.56471060  0.81659637    -0.76700
Al1369     Al  0.52440983  0.57139220  0.87311734     1.49000
C1370       C  0.58496291  0.58735404  0.78153936     0.90700
O1371       O  0.54254688  0.70124599  0.83951497    -0.82900
O1372       O  0.50241842  0.66066728  0.95042390    -0.76400
Al1373     Al  0.57098022  0.64674988  0.86894217     1.90100
O1374       O  0.47729405  0.69370082  0.86112744    -0.75500
O1375       O  0.95038728  0.62413697  0.89190186    -0.75400
O1376       O  0.98947113  0.63706658  0.80230358    -0.81000
O1377       O  0.48030230  0.57249009  0.92279857    -0.79200
O1378       O  0.52965087  0.61860762  0.87689284    -1.15400
O1379       O  0.55504069  0.56996868  0.93654637    -0.74600
C1380       C  0.58975879  0.57313928  0.92441632     0.96200
C1381       C  0.50592157  0.71432126  0.84490316     0.92600
Al1382     Al  0.49599580  0.64860952  0.87490810     1.55600
O1383       O  0.58245343  0.62426240  0.79111569    -0.79200
C1384       C  0.94975325  0.59244678  0.91644243     0.96700
C1385       C  0.53466141  0.66575160  0.97380966     0.91600
O1386       O  0.56582338  0.66500459  0.94580205    -0.84500
O1387       O  0.56583178  0.66500888  0.06270479    -0.84000
C1388       C  0.99501691  0.60425683  0.22663169     0.95400
O1389       O  0.98947744  0.63711304  0.20614010    -0.73100
O1390       O  0.47728404  0.69372710  0.14727832    -0.76700
Al1391     Al  0.49600151  0.64864160  0.13354087     1.49000
C1392       C  0.50591012  0.71436938  0.16348144     0.90700
O1393       O  0.58243831  0.62431590  0.21744215    -0.82900
O1394       O  0.55505541  0.56999301  0.07197326    -0.76400
Al1395     Al  0.57098059  0.64678511  0.13958333     1.90100
O1396       O  0.56803981  0.56475619  0.19194782    -0.75500
O1397       O  0.98031658  0.57252333  0.08560213    -0.75400
O1398       O  0.49402583  0.57363983  0.19854950    -0.81000
O1399       O  0.95039622  0.62416528  0.11649026    -0.79200
O1400       O  0.52965333  0.61863986  0.13158859    -1.15400
O1401       O  0.50242514  0.66068403  0.05803065    -0.74600
C1402       C  0.53466396  0.66575719  0.03467101     0.96200
C1403       C  0.58494162  0.58740704  0.22703053     0.92600
Al1404     Al  0.52441090  0.57142731  0.13535446     1.55600
O1405       O  0.54254010  0.70130593  0.16892648    -0.79200
C1406       C  0.94976700  0.59248270  0.09191773     0.96700
C1407       C  0.58977063  0.57316125  0.08415302     0.91600
O1408       O  0.60210356  0.60336065  0.10954659    -0.84500
loop_ 
_geom_bond_atom_site_label_1 
_geom_bond_atom_site_label_2 
_geom_bond_distance 
_geom_bond_site_symmetry_2 
_ccdc_geom_bond_type 
O1           C16   1.279       .  A
O1           Al9   1.961       .  S
C2           O12   1.263       .  A
C2          O355   1.262       .  A
C2          C112   1.394       .  S
O3          C354   1.262       .  A
O3         Al357   1.804       .  S
O4            C6   1.291       .  A
O4           Al5   1.734       .  S
Al5          O15   1.875       .  S
Al5         O355   1.804       .  S
Al5         O365   1.851       .  S
Al5          O14   1.573       .  S
C6           O19   1.363       .  A
C6          C402   1.477       .  S
O7           C17   1.311       .  A
O7           Al9   2.066       .  S
O8           C21   1.250       .  A
O8          Al18   1.861       .  S
Al9          O22   1.998       .  S
Al9          O19   2.258       .  S
Al9          O14   1.754       .  S
O10          C17   1.296       .  A
O10         Al18   2.053       .  S
O11         C372   1.282       .  A
O11         Al18   1.947       .  S
O12         Al18   1.853       .  S
O13          C20   1.253       .  A
O13        Al357   1.851   1_545  S
O14         Al18   1.659       .  S
O15          C16   1.269       .  A
C16          C43   1.461       .  S
C17         C303   1.600       .  S
C20         O363   1.282       .  A
C20         C241   1.451       .  S
C21          O22   1.291       .  A
C21         C196   1.451       .  S
O23          C38   1.291       .  A
O23         Al31   1.998       .  S
C24          O25   1.263       .  A
C24         O386   1.262       .  A
C24          C90   1.394       .  S
O25         Al27   1.853       .  S
O26          C28   1.296       .  A
O26         Al27   2.053       .  S
Al27         O35   1.947       .  S
Al27         O37   1.861       .  S
Al27         O36   1.659       .  S
C28          O41   1.310       .  A
C28         C270   1.600       .  S
O29          C39   1.363       .  A
O29         Al31   2.257       .  S
O30          C43   1.269       .  A
O30         Al40   1.875       .  S
Al31         O44   1.961       .  S
Al31         O41   2.066       .  S
Al31         O36   1.754       .  S
O32          C39   1.291       .  A
O32         Al40   1.735       .  S
O33          C42   1.253       .  A
O33        Al392   1.851   1_545  S
O34         C376   1.262       .  A
O34        Al392   1.804       .  S
O35         C394   1.282       .  A
O36         Al40   1.573       .  S
O37          C38   1.250       .  A
C38         C218   1.451       .  S
C39         C435   1.477       .  S
Al40        O385   1.851       .  S
Al40        O386   1.804       .  S
C42         O387   1.282       .  A
C42         C258   1.451       .  S
C43          O44   1.279       .  A
O45          C60   1.279       .  A
O45         Al53   1.961       .  S
C46          O56   1.263       .  A
C46          O47   1.262       .  A
C46         C156   1.394       .  S
O47         Al49   1.804       .  S
O48          C50   1.291       .  A
O48        Al401   1.734       .  S
Al49         O57   1.851       .  S
Al49        O400   1.734       .  S
Al49        O411   1.875       .  S
Al49        O410   1.573       .  S
C50          O63   1.363   1_565  A
C50         C358   1.477       .  S
O51          C61   1.311       .  A
O51         Al53   2.066       .  S
O52          C65   1.250       .  A
O52         Al62   1.861       .  S
Al53         O66   1.998       .  S
Al53         O63   2.258       .  S
Al53         O58   1.754       .  S
O54          C61   1.296       .  A
O54         Al62   2.053       .  S
O55          C64   1.282       .  A
O55        Al414   1.947       .  S
O56        Al414   1.853       .  S
O57          C64   1.253       .  A
O58         Al62   1.659       .  S
O58        Al401   1.573   1_545  S
O59          C60   1.269   1_565  A
O59        Al401   1.875       .  S
C60          C87   1.462       .  S
C61         C347   1.600       .  S
Al62        O407   1.947   1_545  S
Al62        O408   1.853   1_545  S
C64         C197   1.451       .  S
C65          O66   1.291       .  A
C65         C240   1.451       .  S
O67          C82   1.291       .  A
O67         Al75   1.998       .  S
C68          O78   1.262       .  A
C68          O69   1.263       .  A
C68         C134   1.394       .  S
O69        Al423   1.853       .  S
O70          C72   1.296       .  A
O70         Al71   2.053       .  S
Al71         O81   1.861       .  S
Al71        O421   1.853   1_545  S
Al71        O431   1.947   1_545  S
Al71         O80   1.659       .  S
C72          O85   1.311       .  A
C72         C314   1.600       .  S
O73          C83   1.363   1_545  A
O73         Al75   2.258       .  S
O74         C439   1.269       .  A
O74         Al84   1.875       .  S
Al75         O88   1.961       .  S
Al75         O85   2.066       .  S
Al75         O80   1.754       .  S
O76          C83   1.291       .  A
O76        Al436   1.734       .  S
O77          C86   1.253       .  A
O77         Al84   1.851       .  S
O78         Al84   1.804       .  S
O79          C86   1.282       .  A
O79        Al423   1.947       .  S
O80        Al436   1.573   1_545  S
O81          C82   1.250       .  A
C82         C262   1.451       .  S
C83         C391   1.477       .  S
Al84        O428   1.734       .  S
Al84        O432   1.573       .  S
C86         C214   1.451       .  S
C87          O88   1.279       .  A
C87         O426   1.269   1_545  A
O89         C104   1.290       .  A
O89         Al97   1.998       .  S
C90         O100   1.262       .  A
C90          O91   1.263       .  A
O91        Al445   1.853       .  S
O92          C94   1.296       .  A
O92         Al93   2.053       .  S
Al93        O103   1.861       .  S
Al93        O443   1.853   1_545  S
Al93        O453   1.947   1_545  S
Al93        O102   1.659       .  S
C94         O107   1.311       .  A
C94         C248   1.600       .  S
O95         C105   1.363   1_545  A
O95         Al97   2.257       .  S
O96         C461   1.269       .  A
O96        Al106   1.875       .  S
Al97        O110   1.960       .  S
Al97        O107   2.066       .  S
Al97        O102   1.754       .  S
O98         C105   1.291       .  A
O98        Al458   1.734       .  S
O99         C108   1.253       .  A
O99        Al106   1.851       .  S
O100       Al106   1.804       .  S
O101        C108   1.282       .  A
O101       Al445   1.947       .  S
O102       Al458   1.573   1_545  S
O103        C104   1.250       .  A
C104        C328   1.451       .  S
C105        C501   1.477       .  S
Al106       O450   1.734       .  S
Al106       O454   1.573       .  S
C108        C280   1.451       .  S
C109        O110   1.279       .  A
C109        O448   1.269   1_545  A
C109        C126   1.462   1_556  S
O111        C126   1.279       .  A
O111       Al119   1.961       .  S
C112        O122   1.263       .  A
C112        O113   1.262       .  A
O113       Al115   1.804       .  S
O114        C116   1.291       .  A
O114       Al467   1.735       .  S
Al115       O123   1.851       .  S
Al115       O466   1.735       .  S
Al115       O477   1.875       .  S
Al115       O476   1.573       .  S
C116        O129   1.363   1_565  A
C116        C512   1.477       .  S
O117        C127   1.311       .  A
O117       Al119   2.066       .  S
O118        C131   1.250       .  A
O118       Al128   1.861       .  S
Al119       O132   1.998       .  S
Al119       O129   2.257       .  S
Al119       O124   1.754       .  S
O120        C127   1.296       .  A
O120       Al128   2.053       .  S
O121        C130   1.282       .  A
O121       Al480   1.947       .  S
O122       Al480   1.853       .  S
O123        C130   1.253       .  A
O124       Al128   1.659       .  S
O124       Al467   1.573   1_545  S
O125        C126   1.269   1_565  A
O125       Al467   1.875       .  S
C127        C237   1.600       .  S
Al128       O473   1.947   1_545  S
Al128       O474   1.853   1_545  S
C130        C307   1.451       .  S
C131        O132   1.291       .  A
C131        C350   1.451       .  S
O133        C148   1.291       .  A
O133       Al141   1.998       .  S
C134        O135   1.263       .  A
C134        O496   1.262       .  A
O135       Al137   1.853       .  S
O136        C138   1.296       .  A
O136       Al137   2.053       .  S
Al137       O145   1.947       .  S
Al137       O147   1.861       .  S
Al137       O146   1.659       .  S
C138        O151   1.310       .  A
C138        C204   1.600       .  S
O139        C149   1.362       .  A
O139       Al141   2.257       .  S
O140        C153   1.269       .  A
O140       Al150   1.875       .  S
Al141       O154   1.961       .  S
Al141       O151   2.066       .  S
Al141       O146   1.754       .  S
O142        C149   1.291       .  A
O142       Al150   1.735       .  S
O143        C152   1.253       .  A
O143       Al502   1.851   1_545  S
O144        C486   1.262       .  A
O144       Al502   1.804       .  S
O145        C504   1.282       .  A
O146       Al150   1.573       .  S
O147        C148   1.250       .  A
C148        C284   1.451       .  S
C149        C457   1.477       .  S
Al150       O495   1.851       .  S
Al150       O496   1.804       .  S
C152        O497   1.282       .  A
C152        C324   1.451       .  S
C153        O154   1.279       .  A
C153        C170   1.461   1_556  S
O155        C170   1.279       .  A
O155       Al163   1.960       .  S
C156        O166   1.263       .  A
C156        O509   1.262       .  A
O157        C508   1.262       .  A
O157       Al511   1.804       .  S
O158        C160   1.291       .  A
O158       Al159   1.734       .  S
Al159       O169   1.875       .  S
Al159       O509   1.804       .  S
Al159       O519   1.851       .  S
Al159       O168   1.573       .  S
C160        O173   1.363       .  A
C160        C468   1.477       .  S
O161        C171   1.311       .  A
O161       Al163   2.066       .  S
O162        C175   1.250       .  A
O162       Al172   1.861       .  S
Al163       O176   1.998       .  S
Al163       O173   2.257       .  S
Al163       O168   1.754       .  S
O164        C171   1.296       .  A
O164       Al172   2.053       .  S
O165        C526   1.282       .  A
O165       Al172   1.947       .  S
O166       Al172   1.853       .  S
O167        C174   1.253       .  A
O167       Al511   1.851   1_545  S
O168       Al172   1.659       .  S
O169        C170   1.269       .  A
C171        C193   1.600       .  S
C174        O517   1.282       .  A
C174        C351   1.451       .  S
C175        O176   1.291       .  A
C175        C306   1.451       .  S
O177        C192   1.279       .  A
O177       Al185   1.961       .  S
C178        O179   1.262       .  A
C178        O892   1.263       .  A
C178        C992   1.394       .  S
O179       Al885   1.804       .  S
O180        C182   1.291   1_655  A
O180       Al181   1.734       .  S
Al181       O191   1.875   1_655  S
Al181       O883   1.804       .  S
Al181       O893   1.851       .  S
Al181       O190   1.573   1_655  S
C182        O195   1.363       .  A
C182        C930   1.477   1_455  S
O183        C193   1.311       .  A
O183       Al185   2.066       .  S
O184        C197   1.250       .  A
O184       Al194   1.861       .  S
Al185       O198   1.998       .  S
Al185       O195   2.257       .  S
Al185       O190   1.754       .  S
O186        C193   1.296       .  A
O186       Al194   2.053       .  S
O187        C196   1.282       .  A
O187       Al898   1.947       .  S
O188        C882   1.263       .  A
O188       Al194   1.853   1_655  S
O189        C196   1.253       .  A
O189       Al885   1.851       .  S
O190       Al194   1.659       .  S
O191        C192   1.269       .  A
C192        C219   1.461       .  S
Al194       O891   1.947   1_455  S
C197        O198   1.291       .  A
O199        C214   1.291       .  A
O199       Al207   1.998       .  S
C200        O210   1.262       .  A
C200        O905   1.263       .  A
C200        C970   1.394       .  S
O201        C904   1.263       .  A
O201       Al203   1.853   1_655  S
O202        C204   1.296       .  A
O202       Al203   2.053       .  S
Al203       O213   1.861       .  S
Al203       O915   1.948   1_455  S
Al203       O212   1.659       .  S
C204        O217   1.310       .  A
O205        C215   1.362       .  A
O205       Al207   2.257       .  S
O206        C219   1.269       .  A
O206       Al920   1.875   1_455  S
Al207       O220   1.961       .  S
Al207       O217   2.066       .  S
Al207       O212   1.754       .  S
O208        C215   1.291   1_655  A
O208       Al920   1.735       .  S
O209        C218   1.253       .  A
O209       Al216   1.851       .  S
O210       Al216   1.804       .  S
O211        C218   1.282       .  A
O211       Al907   1.948       .  S
O212       Al920   1.573   1_455  S
O213        C214   1.250       .  A
C215        C963   1.477   1_455  S
Al216       O910   1.875       .  S
Al216       O912   1.735       .  S
Al216       O916   1.573       .  S
C219        O220   1.279       .  A
O221        C236   1.279       .  A
O221       Al229   1.961       .  S
C222        O223   1.262       .  A
C222        O936   1.263       .  A
C222       C1036   1.394   1_455  S
O223       Al225   1.804       .  S
O224        C226   1.291       .  A
O224       Al929   1.734       .  S
Al225       O233   1.851       .  S
Al225       O928   1.734       .  S
Al225       O939   1.875       .  S
Al225       O938   1.573   1_455  S
C226        O239   1.363       .  A
C226        C886   1.477       .  S
O227        C237   1.311       .  A
O227       Al229   2.066       .  S
O228        C241   1.250       .  A
O228       Al238   1.861       .  S
Al229       O242   1.998       .  S
Al229       O239   2.257       .  S
Al229       O234   1.754       .  S
O230        C237   1.296       .  A
O230       Al238   2.053       .  S
O231        C240   1.282       .  A
O231       Al942   1.947   1_455  S
O232        C926   1.263       .  A
O232       Al238   1.853       .  S
O233        C240   1.253       .  A
O234       Al238   1.659       .  S
O234       Al929   1.573       .  S
O235        C236   1.269       .  A
O235       Al929   1.875       .  S
C236        C263   1.461       .  S
Al238       O935   1.947       .  S
C241        O242   1.291       .  A
O243        C258   1.291       .  A
O243       Al251   1.998       .  S
C244        O254   1.262       .  A
C244        O949   1.263       .  A
C244       C1014   1.394   1_455  S
O245        C948   1.263       .  A
O245       Al247   1.853       .  S
O246        C248   1.296       .  A
O246       Al247   2.053       .  S
Al247       O257   1.861       .  S
Al247       O959   1.947       .  S
Al247       O256   1.659       .  S
C248        O261   1.311       .  A
O249        C259   1.363       .  A
O249       Al251   2.257       .  S
O250        C263   1.269       .  A
O250       Al964   1.875       .  S
Al251       O264   1.960       .  S
Al251       O261   2.066       .  S
Al251       O256   1.754       .  S
O252        C259   1.291       .  A
O252       Al964   1.734       .  S
O253        C262   1.253       .  A
O253       Al260   1.851       .  S
O254       Al260   1.804       .  S
O255        C262   1.282       .  A
O255       Al951   1.947   1_455  S
O256       Al964   1.573       .  S
O257        C258   1.250       .  A
C259        C919   1.477       .  S
Al260       O954   1.875       .  S
Al260       O956   1.734       .  S
Al260       O960   1.573   1_455  S
C263        O264   1.279       .  A
O265        C280   1.291       .  A
O265       Al273   1.998       .  S
C266        O276   1.262       .  A
C266        O971   1.263       .  A
C266        C904   1.394   1_455  S
O267        C970   1.263       .  A
O267       Al269   1.853       .  S
O268        C270   1.296       .  A
O268       Al269   2.053       .  S
Al269       O277   1.947       .  S
Al269       O279   1.861       .  S
Al269       O278   1.659       .  S
C270        O283   1.311       .  A
O271        C281   1.363       .  A
O271       Al273   2.257       .  S
O272        C285   1.269       .  A
O272       Al986   1.875       .  S
Al273       O286   1.961       .  S
Al273       O283   2.066       .  S
Al273       O278   1.754       .  S
O274        C281   1.291       .  A
O274       Al986   1.734       .  S
O275        C284   1.253       .  A
O275       Al282   1.851       .  S
O276       Al282   1.804       .  S
O277        C988   1.282       .  A
O278       Al986   1.573       .  S
O279        C280   1.250       .  A
C281       C1029   1.477       .  S
Al282       O976   1.875       .  S
Al282       O978   1.734       .  S
Al282       O982   1.573   1_455  S
C284        O981   1.282       .  A
C285        O286   1.279       .  A
C285        C302   1.462   1_556  S
O287        C302   1.279       .  A
O287       Al295   1.961       .  S
C288        O289   1.262       .  A
C288       O1002   1.263       .  A
C288        C882   1.394   1_455  S
O289       Al291   1.804       .  S
O290        C292   1.291       .  A
O290       Al995   1.734       .  S
Al291       O299   1.851       .  S
Al291       O994   1.734       .  S
Al291      O1005   1.875       .  S
Al291      O1004   1.573   1_455  S
C292        O305   1.363       .  A
C292       C1040   1.477       .  S
O293        C303   1.311       .  A
O293       Al295   2.066       .  S
O294        C307   1.250       .  A
O294       Al304   1.861       .  S
Al295       O308   1.998       .  S
Al295       O305   2.258       .  S
Al295       O300   1.754       .  S
O296        C303   1.296       .  A
O296       Al304   2.053       .  S
O297        C306   1.282       .  A
O297      Al1008   1.947   1_455  S
O298        C992   1.263       .  A
O298       Al304   1.853       .  S
O299        C306   1.253       .  A
O300       Al304   1.659       .  S
O300       Al995   1.573       .  S
O301        C302   1.269       .  A
O301       Al995   1.875       .  S
Al304      O1001   1.947       .  S
C307        O308   1.291       .  A
O309        C324   1.291       .  A
O309       Al317   1.998       .  S
C310        O320   1.262       .  A
C310       O1015   1.263       .  A
C310        C948   1.394       .  S
O311       C1014   1.263       .  A
O311       Al313   1.853   1_655  S
O312        C314   1.296       .  A
O312       Al313   2.053       .  S
Al313       O321   1.947   1_455  S
Al313       O323   1.861       .  S
Al313       O322   1.659       .  S
C314        O327   1.311       .  A
O315        C325   1.363       .  A
O315       Al317   2.257       .  S
O316        C329   1.269       .  A
O316       Al326   1.875   1_455  S
Al317       O330   1.961       .  S
Al317       O327   2.066       .  S
Al317       O322   1.754       .  S
O318        C325   1.291   1_655  A
O318       Al326   1.734       .  S
O319        C328   1.253       .  A
O319      Al1030   1.851       .  S
O320      Al1030   1.804       .  S
O321       C1032   1.282       .  A
O322       Al326   1.573   1_455  S
O323        C324   1.250       .  A
C325        C985   1.477   1_455  S
Al326      O1023   1.851       .  S
Al326      O1024   1.804       .  S
C328       O1025   1.282       .  A
C329        O330   1.279       .  A
C329        C346   1.461   1_556  S
O331        C346   1.279       .  A
O331       Al339   1.961       .  S
C332        O333   1.262       .  A
C332       O1046   1.263       .  A
C332        C926   1.394       .  S
O333      Al1039   1.804       .  S
O334        C336   1.291   1_655  A
O334       Al335   1.734       .  S
Al335       O345   1.875   1_655  S
Al335      O1037   1.804       .  S
Al335      O1047   1.851       .  S
Al335       O344   1.573   1_655  S
C336        O349   1.363       .  A
C336        C996   1.477   1_455  S
O337        C347   1.311       .  A
O337       Al339   2.066       .  S
O338        C351   1.250       .  A
O338       Al348   1.861       .  S
Al339       O352   1.998       .  S
Al339       O349   2.258       .  S
Al339       O344   1.754       .  S
O340        C347   1.296       .  A
O340       Al348   2.053       .  S
O341        C350   1.282       .  A
O341      Al1052   1.947       .  S
O342       C1036   1.263       .  A
O342       Al348   1.853   1_655  S
O343        C350   1.253       .  A
O343      Al1039   1.851       .  S
O344       Al348   1.659       .  S
O345        C346   1.269       .  A
Al348      O1045   1.947   1_455  S
C351        O352   1.291       .  A
O353        C368   1.279       .  A
O353       Al361   1.961       .  S
C354        O364   1.263       .  A
C354        C464   1.394       .  S
O356        C358   1.291   1_545  A
O356       Al357   1.734   1_545  S
Al357       O367   1.875       .  S
Al357       O366   1.573       .  S
C358        O371   1.363       .  A
O359        C369   1.311       .  A
O359       Al361   2.066       .  S
O360        C373   1.250       .  A
O360       Al370   1.861       .  S
Al361       O374   1.998       .  S
Al361       O371   2.258       .  S
Al361       O366   1.754       .  S
O362        C369   1.296       .  A
O362       Al370   2.053       .  S
O363       Al370   1.947   1_545  S
O364       Al370   1.853       .  S
O365        C372   1.253       .  A
O366       Al370   1.659       .  S
O367        C368   1.269       .  A
C368        C395   1.461       .  S
C369        C655   1.600       .  S
C372        C593   1.451       .  S
C373        O374   1.291       .  A
C373        C548   1.451       .  S
O375        C390   1.291       .  A
O375       Al383   1.998       .  S
C376        O377   1.263       .  A
C376        C442   1.394       .  S
O377       Al379   1.853       .  S
O378        C380   1.296       .  A
O378       Al379   2.053       .  S
Al379       O387   1.947   1_565  S
Al379       O389   1.861       .  S
Al379       O388   1.659       .  S
C380        O393   1.310       .  A
C380        C622   1.600       .  S
O381        C391   1.363       .  A
O381       Al383   2.257       .  S
O382        C395   1.269       .  A
O382       Al392   1.875       .  S
Al383       O396   1.961       .  S
Al383       O393   2.066       .  S
Al383       O388   1.754       .  S
O384        C391   1.291   1_545  A
O384       Al392   1.735   1_545  S
O385        C394   1.253       .  A
O388       Al392   1.573       .  S
O389        C390   1.250       .  A
C390        C570   1.451       .  S
C394        C610   1.451       .  S
C395        O396   1.279       .  A
O397        C412   1.279       .  A
O397       Al405   1.961       .  S
C398        O408   1.263       .  A
C398        O399   1.262       .  A
C398        C508   1.394       .  S
O399       Al401   1.804       .  S
O400        C402   1.291       .  A
Al401       O409   1.851       .  S
C402        O415   1.363       .  A
O403        C413   1.311       .  A
O403       Al405   2.066       .  S
O404        C417   1.250       .  A
O404       Al414   1.861       .  S
Al405       O418   1.998       .  S
Al405       O415   2.258       .  S
Al405       O410   1.754       .  S
O406        C413   1.296       .  A
O406       Al414   2.053       .  S
O407        C416   1.282       .  A
O409        C416   1.253       .  A
O410       Al414   1.659       .  S
O411        C412   1.269       .  A
C412        C439   1.462       .  S
C413        C699   1.600       .  S
C416        C549   1.451       .  S
C417        O418   1.291       .  A
C417        C592   1.451       .  S
O419        C434   1.291       .  A
O419       Al427   1.998       .  S
C420        O430   1.262       .  A
C420        O421   1.263       .  A
C420        C486   1.394       .  S
O422        C424   1.296       .  A
O422       Al423   2.053       .  S
Al423       O433   1.861       .  S
Al423       O432   1.659       .  S
C424        O437   1.311       .  A
C424        C666   1.600       .  S
O425        C435   1.363       .  A
O425       Al427   2.258       .  S
O426       Al436   1.875       .  S
Al427       O440   1.961       .  S
Al427       O437   2.066       .  S
Al427       O432   1.754       .  S
O428        C435   1.291       .  A
O429        C438   1.253       .  A
O429       Al436   1.851       .  S
O430       Al436   1.804       .  S
O431        C438   1.282       .  A
O433        C434   1.250       .  A
C434        C614   1.451       .  S
C438        C566   1.451       .  S
C439        O440   1.279       .  A
O441        C456   1.290       .  A
O441       Al449   1.998       .  S
C442        O452   1.262       .  A
C442        O443   1.263       .  A
O444        C446   1.296       .  A
O444       Al445   2.053       .  S
Al445       O455   1.861       .  S
Al445       O454   1.659       .  S
C446        O459   1.311       .  A
C446        C600   1.600       .  S
O447        C457   1.363       .  A
O447       Al449   2.257       .  S
O448       Al458   1.875       .  S
Al449       O462   1.960       .  S
Al449       O459   2.066       .  S
Al449       O454   1.754       .  S
O450        C457   1.291       .  A
O451        C460   1.253       .  A
O451       Al458   1.851       .  S
O452       Al458   1.804       .  S
O453        C460   1.282       .  A
O455        C456   1.250       .  A
C456        C680   1.451       .  S
C460        C632   1.451       .  S
C461        O462   1.279       .  A
C461        C478   1.462   1_556  S
O463        C478   1.279       .  A
O463       Al471   1.961       .  S
C464        O474   1.263       .  A
C464        O465   1.262       .  A
O465       Al467   1.804       .  S
O466        C468   1.291       .  A
Al467       O475   1.851       .  S
C468        O481   1.363       .  A
O469        C479   1.311       .  A
O469       Al471   2.066       .  S
O470        C483   1.250       .  A
O470       Al480   1.861       .  S
Al471       O484   1.998       .  S
Al471       O481   2.257       .  S
Al471       O476   1.754       .  S
O472        C479   1.296       .  A
O472       Al480   2.053       .  S
O473        C482   1.282       .  A
O475        C482   1.253       .  A
O476       Al480   1.659       .  S
O477        C478   1.269       .  A
C479        C589   1.600       .  S
C482        C659   1.451       .  S
C483        O484   1.291       .  A
C483        C702   1.451       .  S
O485        C500   1.291       .  A
O485       Al493   1.998       .  S
C486        O487   1.263       .  A
O487       Al489   1.853       .  S
O488        C490   1.296       .  A
O488       Al489   2.053       .  S
Al489       O497   1.947   1_565  S
Al489       O499   1.861       .  S
Al489       O498   1.659       .  S
C490        O503   1.310       .  A
C490        C556   1.600       .  S
O491        C501   1.362       .  A
O491       Al493   2.257       .  S
O492        C505   1.269       .  A
O492       Al502   1.875       .  S
Al493       O506   1.961       .  S
Al493       O503   2.066       .  S
Al493       O498   1.754       .  S
O494        C501   1.291   1_545  A
O494       Al502   1.735   1_545  S
O495        C504   1.253       .  A
O498       Al502   1.573       .  S
O499        C500   1.250       .  A
C500        C636   1.451       .  S
C504        C676   1.451       .  S
C505        O506   1.279       .  A
C505        C522   1.461   1_556  S
O507        C522   1.279       .  A
O507       Al515   1.960       .  S
C508        O518   1.263       .  A
O510        C512   1.291   1_545  A
O510       Al511   1.734   1_545  S
Al511       O521   1.875       .  S
Al511       O520   1.573       .  S
C512        O525   1.363       .  A
O513        C523   1.311       .  A
O513       Al515   2.066       .  S
O514        C527   1.250       .  A
O514       Al524   1.861       .  S
Al515       O528   1.998       .  S
Al515       O525   2.257       .  S
Al515       O520   1.754       .  S
O516        C523   1.296       .  A
O516       Al524   2.053       .  S
O517       Al524   1.947   1_545  S
O518       Al524   1.853       .  S
O519        C526   1.253       .  A
O520       Al524   1.659       .  S
O521        C522   1.269       .  A
C523        C545   1.600       .  S
C526        C703   1.451       .  S
C527        O528   1.291       .  A
C527        C658   1.451       .  S
O529        C544   1.279       .  A
O529       Al537   1.961       .  S
C530       O1244   1.263       .  A
C530        O531   1.262       .  A
C530       C1344   1.394       .  S
O531      Al1237   1.804       .  S
O532        C534   1.291   1_655  A
O532       Al533   1.734       .  S
Al533      O1235   1.804       .  S
Al533      O1245   1.851       .  S
Al533       O543   1.875   1_655  S
Al533       O542   1.573   1_655  S
C534        O547   1.363       .  A
C534       C1282   1.477   1_455  S
O535        C545   1.311       .  A
O535       Al537   2.066       .  S
O536        C549   1.250       .  A
O536       Al546   1.861       .  S
Al537       O550   1.998       .  S
Al537       O547   2.257       .  S
Al537       O542   1.754       .  S
O538        C545   1.296       .  A
O538       Al546   2.053       .  S
O539        C548   1.282       .  A
O539      Al1250   1.947       .  S
O540       C1234   1.263       .  A
O540       Al546   1.853   1_655  S
O541        C548   1.253       .  A
O541      Al1237   1.851       .  S
O542       Al546   1.659       .  S
O543        C544   1.269       .  A
C544        C571   1.461       .  S
Al546      O1243   1.947   1_455  S
C549        O550   1.291       .  A
O551        C566   1.291       .  A
O551       Al559   1.998       .  S
C552        O562   1.262       .  A
C552       O1257   1.263       .  A
C552       C1322   1.394       .  S
O553       C1256   1.263       .  A
O553       Al555   1.853   1_655  S
O554        C556   1.296       .  A
O554       Al555   2.053       .  S
Al555      O1267   1.948   1_455  S
Al555       O565   1.861       .  S
Al555       O564   1.659       .  S
C556        O569   1.310       .  A
O557        C567   1.362       .  A
O557       Al559   2.257       .  S
O558        C571   1.269       .  A
O558      Al1272   1.875   1_455  S
Al559       O572   1.961       .  S
Al559       O569   2.066       .  S
Al559       O564   1.754       .  S
O560        C567   1.291   1_655  A
O560      Al1272   1.735       .  S
O561        C570   1.253       .  A
O561       Al568   1.851       .  S
O562       Al568   1.804       .  S
O563        C570   1.282       .  A
O563      Al1259   1.948       .  S
O564      Al1272   1.573   1_455  S
O565        C566   1.250       .  A
C567       C1315   1.477   1_455  S
Al568      O1262   1.875       .  S
Al568      O1264   1.735       .  S
Al568      O1268   1.573       .  S
C571        O572   1.279       .  A
O573        C588   1.279       .  A
O573       Al581   1.961       .  S
C574       O1288   1.263       .  A
C574        O575   1.262       .  A
C574       C1388   1.394   1_455  S
O575       Al577   1.804       .  S
O576        C578   1.291       .  A
O576      Al1281   1.734       .  S
Al577      O1280   1.734       .  S
Al577       O585   1.851       .  S
Al577      O1291   1.875       .  S
Al577      O1290   1.573   1_455  S
C578        O591   1.363       .  A
C578       C1238   1.477       .  S
O579        C589   1.311       .  A
O579       Al581   2.066       .  S
O580        C593   1.250       .  A
O580       Al590   1.861       .  S
Al581       O594   1.998       .  S
Al581       O591   2.257       .  S
Al581       O586   1.754       .  S
O582        C589   1.296       .  A
O582       Al590   2.053       .  S
O583        C592   1.282       .  A
O583      Al1294   1.947   1_455  S
O584       C1278   1.263       .  A
O584       Al590   1.853       .  S
O585        C592   1.253       .  A
O586      Al1281   1.573       .  S
O586       Al590   1.659       .  S
O587        C588   1.269       .  A
O587      Al1281   1.875       .  S
C588        C615   1.461       .  S
Al590      O1287   1.947       .  S
C593        O594   1.291       .  A
O595        C610   1.291       .  A
O595       Al603   1.998       .  S
C596        O606   1.262       .  A
C596       O1301   1.263       .  A
C596       C1366   1.394   1_455  S
O597       C1300   1.263       .  A
O597       Al599   1.853       .  S
O598        C600   1.296       .  A
O598       Al599   2.053       .  S
Al599      O1311   1.947       .  S
Al599       O609   1.861       .  S
Al599       O608   1.659       .  S
C600        O613   1.311       .  A
O601        C611   1.363       .  A
O601       Al603   2.257       .  S
O602        C615   1.269       .  A
O602      Al1316   1.875       .  S
Al603       O616   1.960       .  S
Al603       O613   2.066       .  S
Al603       O608   1.754       .  S
O604        C611   1.291       .  A
O604      Al1316   1.734       .  S
O605        C614   1.253       .  A
O605       Al612   1.851       .  S
O606       Al612   1.804       .  S
O607        C614   1.282       .  A
O607      Al1303   1.947   1_455  S
O608      Al1316   1.573       .  S
O609        C610   1.250       .  A
C611       C1271   1.477       .  S
Al612      O1306   1.875       .  S
Al612      O1308   1.734       .  S
Al612      O1312   1.573   1_455  S
C615        O616   1.279       .  A
O617        C632   1.291       .  A
O617       Al625   1.998       .  S
C618        O628   1.262       .  A
C618       O1323   1.263       .  A
C618       C1256   1.394   1_455  S
O619       C1322   1.263       .  A
O619       Al621   1.853       .  S
O620        C622   1.296       .  A
O620       Al621   2.053       .  S
Al621       O629   1.947       .  S
Al621       O631   1.861       .  S
Al621       O630   1.659       .  S
C622        O635   1.311       .  A
O623        C633   1.363       .  A
O623       Al625   2.257       .  S
O624        C637   1.269       .  A
O624      Al1338   1.875       .  S
Al625       O638   1.961       .  S
Al625       O635   2.066       .  S
Al625       O630   1.754       .  S
O626        C633   1.291       .  A
O626      Al1338   1.734       .  S
O627        C636   1.253       .  A
O627       Al634   1.851       .  S
O628       Al634   1.804       .  S
O629       C1340   1.282       .  A
O630      Al1338   1.573       .  S
O631        C632   1.250       .  A
C633       C1381   1.477       .  S
Al634      O1328   1.875       .  S
Al634      O1330   1.734       .  S
Al634      O1334   1.573   1_455  S
C636       O1333   1.282       .  A
C637        O638   1.279       .  A
C637        C654   1.462   1_556  S
O639        C654   1.279       .  A
O639       Al647   1.961       .  S
C640       O1354   1.263       .  A
C640        O641   1.262       .  A
C640       C1234   1.394   1_455  S
O641       Al643   1.804       .  S
O642        C644   1.291       .  A
O642      Al1347   1.734       .  S
Al643      O1346   1.734       .  S
Al643       O651   1.851       .  S
Al643      O1357   1.875       .  S
Al643      O1356   1.573   1_455  S
C644        O657   1.363       .  A
C644       C1392   1.477       .  S
O645        C655   1.311       .  A
O645       Al647   2.066       .  S
O646        C659   1.250       .  A
O646       Al656   1.861       .  S
Al647       O660   1.998       .  S
Al647       O657   2.258       .  S
Al647       O652   1.754       .  S
O648        C655   1.296       .  A
O648       Al656   2.053       .  S
O649        C658   1.282       .  A
O649      Al1360   1.947   1_455  S
O650       C1344   1.263       .  A
O650       Al656   1.853       .  S
O651        C658   1.253       .  A
O652      Al1347   1.573       .  S
O652       Al656   1.659       .  S
O653        C654   1.269       .  A
O653      Al1347   1.875       .  S
Al656      O1353   1.947       .  S
C659        O660   1.291       .  A
O661        C676   1.291       .  A
O661       Al669   1.998       .  S
C662        O672   1.262       .  A
C662       O1367   1.263       .  A
C662       C1300   1.394       .  S
O663       C1366   1.263       .  A
O663       Al665   1.853   1_655  S
O664        C666   1.296       .  A
O664       Al665   2.053       .  S
Al665       O673   1.947   1_455  S
Al665       O675   1.861       .  S
Al665       O674   1.659       .  S
C666        O679   1.311       .  A
O667        C677   1.363       .  A
O667       Al669   2.257       .  S
O668        C681   1.269       .  A
O668       Al678   1.875   1_455  S
Al669       O682   1.961       .  S
Al669       O679   2.066       .  S
Al669       O674   1.754       .  S
O670        C677   1.291   1_655  A
O670       Al678   1.734       .  S
O671        C680   1.253       .  A
O671      Al1382   1.851       .  S
O672      Al1382   1.804       .  S
O673       C1384   1.282       .  A
O674       Al678   1.573   1_455  S
O675        C676   1.250       .  A
C677       C1337   1.477   1_455  S
Al678      O1375   1.851       .  S
Al678      O1376   1.804       .  S
C680       O1377   1.282       .  A
C681        O682   1.279       .  A
C681        C698   1.461   1_556  S
O683        C698   1.279       .  A
O683       Al691   1.961       .  S
C684       O1398   1.263       .  A
C684        O685   1.262       .  A
C684       C1278   1.394       .  S
O685      Al1391   1.804       .  S
O686        C688   1.291   1_655  A
O686       Al687   1.734       .  S
Al687      O1389   1.804       .  S
Al687      O1399   1.851       .  S
Al687       O697   1.875   1_655  S
Al687       O696   1.573   1_655  S
C688        O701   1.363       .  A
C688       C1348   1.477   1_455  S
O689        C699   1.311       .  A
O689       Al691   2.066       .  S
O690        C703   1.250       .  A
O690       Al700   1.861       .  S
Al691       O704   1.998       .  S
Al691       O701   2.258       .  S
Al691       O696   1.754       .  S
O692        C699   1.296       .  A
O692       Al700   2.053       .  S
O693        C702   1.282       .  A
O693      Al1404   1.947       .  S
O694       C1388   1.263       .  A
O694       Al700   1.853   1_655  S
O695        C702   1.253       .  A
O695      Al1391   1.851       .  S
O696       Al700   1.659       .  S
O697        C698   1.269       .  A
Al700      O1397   1.947   1_455  S
C703        O704   1.291       .  A
O705        C720   1.279       .  A
O705       Al713   1.961       .  S
C706        O716   1.263       .  A
C706       O1059   1.262       .  A
C706        C816   1.394       .  S
O707       C1058   1.262       .  A
O707      Al1061   1.804       .  S
O708        C710   1.291       .  A
O708       Al709   1.734       .  S
Al709      O1059   1.804       .  S
Al709      O1069   1.851       .  S
Al709       O719   1.875       .  S
Al709       O718   1.573       .  S
C710        O723   1.363       .  A
C710       C1106   1.477       .  S
O711        C721   1.311       .  A
O711       Al713   2.066       .  S
O712        C725   1.250       .  A
O712       Al722   1.861       .  S
Al713       O726   1.998       .  S
Al713       O723   2.258       .  S
Al713       O718   1.754       .  S
O714        C721   1.296       .  A
O714       Al722   2.053       .  S
O715       C1076   1.282       .  A
O715       Al722   1.947       .  S
O716       Al722   1.853       .  S
O717        C724   1.253       .  A
O717      Al1061   1.851   1_545  S
O718       Al722   1.659       .  S
O719        C720   1.269       .  A
C720        C747   1.461       .  S
C721       C1007   1.600       .  S
C724       O1067   1.282       .  A
C724        C945   1.451       .  S
C725        O726   1.291       .  A
C725        C900   1.451       .  S
O727        C742   1.291       .  A
O727       Al735   1.998       .  S
C728       O1090   1.262       .  A
C728        O729   1.263       .  A
C728        C794   1.394       .  S
O729       Al731   1.853       .  S
O730        C732   1.296       .  A
O730       Al731   2.053       .  S
Al731       O739   1.947       .  S
Al731       O741   1.861       .  S
Al731       O740   1.659       .  S
C732        O745   1.310       .  A
C732        C974   1.600       .  S
O733        C743   1.363       .  A
O733       Al735   2.257       .  S
O734        C747   1.269       .  A
O734       Al744   1.875       .  S
Al735       O748   1.961       .  S
Al735       O745   2.066       .  S
Al735       O740   1.754       .  S
O736        C743   1.291       .  A
O736       Al744   1.735       .  S
O737        C746   1.253       .  A
O737      Al1096   1.851   1_545  S
O738       C1080   1.262       .  A
O738      Al1096   1.804       .  S
O739       C1098   1.282       .  A
O740       Al744   1.573       .  S
O741        C742   1.250       .  A
C742        C922   1.451       .  S
C743       C1139   1.477       .  S
Al744      O1089   1.851       .  S
Al744      O1090   1.804       .  S
C746       O1091   1.282       .  A
C746        C962   1.451       .  S
C747        O748   1.279       .  A
O749        C764   1.279       .  A
O749       Al757   1.961       .  S
C750        O760   1.263       .  A
C750        O751   1.262       .  A
C750        C860   1.394       .  S
O751       Al753   1.804       .  S
O752        C754   1.291       .  A
O752      Al1105   1.734       .  S
Al753      O1104   1.734       .  S
Al753       O761   1.851       .  S
Al753      O1115   1.875       .  S
Al753      O1114   1.573       .  S
C754        O767   1.363   1_565  A
C754       C1062   1.477       .  S
O755        C765   1.311       .  A
O755       Al757   2.066       .  S
O756        C769   1.250       .  A
O756       Al766   1.861       .  S
Al757       O770   1.998       .  S
Al757       O767   2.258       .  S
Al757       O762   1.754       .  S
O758        C765   1.296       .  A
O758       Al766   2.053       .  S
O759        C768   1.282       .  A
O759      Al1118   1.947       .  S
O760      Al1118   1.853       .  S
O761        C768   1.253       .  A
O762      Al1105   1.573   1_545  S
O762       Al766   1.659       .  S
O763        C764   1.269   1_565  A
O763      Al1105   1.875       .  S
C764        C791   1.462       .  S
C765       C1051   1.600       .  S
Al766      O1111   1.947   1_545  S
Al766      O1112   1.853   1_545  S
C768        C901   1.451       .  S
C769        O770   1.291       .  A
C769        C944   1.451       .  S
O771        C786   1.291       .  A
O771       Al779   1.998       .  S
C772        O782   1.262       .  A
C772        O773   1.263       .  A
C772        C838   1.394       .  S
O773      Al1127   1.853       .  S
O774        C776   1.296       .  A
O774       Al775   2.053       .  S
Al775      O1125   1.853   1_545  S
Al775      O1135   1.947   1_545  S
Al775       O785   1.861       .  S
Al775       O784   1.659       .  S
C776        O789   1.311       .  A
C776       C1018   1.600       .  S
O777        C787   1.363   1_545  A
O777       Al779   2.258       .  S
O778       C1143   1.269       .  A
O778       Al788   1.875       .  S
Al779       O792   1.961       .  S
Al779       O789   2.066       .  S
Al779       O784   1.754       .  S
O780        C787   1.291       .  A
O780      Al1140   1.734       .  S
O781        C790   1.253       .  A
O781       Al788   1.851       .  S
O782       Al788   1.804       .  S
O783        C790   1.282       .  A
O783      Al1127   1.947       .  S
O784      Al1140   1.573   1_545  S
O785        C786   1.250       .  A
C786        C966   1.451       .  S
C787       C1095   1.477       .  S
Al788      O1132   1.734       .  S
Al788      O1136   1.573       .  S
C790        C918   1.451       .  S
C791       O1130   1.269   1_545  A
C791        O792   1.279       .  A
O793        C808   1.290       .  A
O793       Al801   1.998       .  S
C794        O804   1.262       .  A
C794        O795   1.263       .  A
O795      Al1149   1.853       .  S
O796        C798   1.296       .  A
O796       Al797   2.053       .  S
Al797      O1147   1.853   1_545  S
Al797      O1157   1.947   1_545  S
Al797       O807   1.861       .  S
Al797       O806   1.659       .  S
C798        O811   1.311       .  A
C798        C952   1.600       .  S
O799        C809   1.363   1_545  A
O799       Al801   2.257       .  S
O800       C1165   1.269       .  A
O800       Al810   1.875       .  S
Al801       O814   1.960       .  S
Al801       O811   2.066       .  S
Al801       O806   1.754       .  S
O802        C809   1.291       .  A
O802      Al1162   1.734       .  S
O803        C812   1.253       .  A
O803       Al810   1.851       .  S
O804       Al810   1.804       .  S
O805        C812   1.282       .  A
O805      Al1149   1.947       .  S
O806      Al1162   1.573   1_545  S
O807        C808   1.250       .  A
C808       C1032   1.451       .  S
C809       C1205   1.477       .  S
Al810      O1154   1.734       .  S
Al810      O1158   1.573       .  S
C812        C984   1.451       .  S
C813       O1152   1.269   1_545  A
C813        O814   1.279       .  A
C813        C830   1.462   1_556  S
O815        C830   1.279       .  A
O815       Al823   1.961       .  S
C816        O826   1.263       .  A
C816        O817   1.262       .  A
O817       Al819   1.804       .  S
O818        C820   1.291       .  A
O818      Al1171   1.735       .  S
Al819      O1170   1.735       .  S
Al819       O827   1.851       .  S
Al819      O1181   1.875       .  S
Al819      O1180   1.573       .  S
C820        O833   1.363   1_565  A
C820       C1216   1.477       .  S
O821        C831   1.311       .  A
O821       Al823   2.066       .  S
O822        C835   1.250       .  A
O822       Al832   1.861       .  S
Al823       O836   1.998       .  S
Al823       O833   2.257       .  S
Al823       O828   1.754       .  S
O824        C831   1.296       .  A
O824       Al832   2.053       .  S
O825        C834   1.282       .  A
O825      Al1184   1.947       .  S
O826      Al1184   1.853       .  S
O827        C834   1.253       .  A
O828      Al1171   1.573   1_545  S
O828       Al832   1.659       .  S
O829        C830   1.269   1_565  A
O829      Al1171   1.875       .  S
C831        C941   1.600       .  S
Al832      O1177   1.947   1_545  S
Al832      O1178   1.853   1_545  S
C834       C1011   1.451       .  S
C835        O836   1.291       .  A
C835       C1054   1.451       .  S
O837        C852   1.291       .  A
O837       Al845   1.998       .  S
C838       O1200   1.262       .  A
C838        O839   1.263       .  A
O839       Al841   1.853       .  S
O840        C842   1.296       .  A
O840       Al841   2.053       .  S
Al841       O849   1.947       .  S
Al841       O851   1.861       .  S
Al841       O850   1.659       .  S
C842        O855   1.310       .  A
C842        C908   1.600       .  S
O843        C853   1.362       .  A
O843       Al845   2.257       .  S
O844        C857   1.269       .  A
O844       Al854   1.875       .  S
Al845       O858   1.961       .  S
Al845       O855   2.066       .  S
Al845       O850   1.754       .  S
O846        C853   1.291       .  A
O846       Al854   1.735       .  S
O847        C856   1.253       .  A
O847      Al1206   1.851   1_545  S
O848       C1190   1.262       .  A
O848      Al1206   1.804       .  S
O849       C1208   1.282       .  A
O850       Al854   1.573       .  S
O851        C852   1.250       .  A
C852        C988   1.451       .  S
C853       C1161   1.477       .  S
Al854      O1199   1.851       .  S
Al854      O1200   1.804       .  S
C856       O1201   1.282       .  A
C856       C1028   1.451       .  S
C857        O858   1.279       .  A
C857        C874   1.461   1_556  S
O859        C874   1.279       .  A
O859       Al867   1.960       .  S
C860        O870   1.263       .  A
C860       O1213   1.262       .  A
O861       C1212   1.262       .  A
O861      Al1215   1.804       .  S
O862        C864   1.291       .  A
O862       Al863   1.734       .  S
Al863      O1213   1.804       .  S
Al863      O1223   1.851       .  S
Al863       O873   1.875       .  S
Al863       O872   1.573       .  S
C864        O877   1.363       .  A
C864       C1172   1.477       .  S
O865        C875   1.311       .  A
O865       Al867   2.066       .  S
O866        C879   1.250       .  A
O866       Al876   1.861       .  S
Al867       O880   1.998       .  S
Al867       O877   2.257       .  S
Al867       O872   1.754       .  S
O868        C875   1.296       .  A
O868       Al876   2.053       .  S
O869       C1230   1.282       .  A
O869       Al876   1.947       .  S
O870       Al876   1.853       .  S
O871        C878   1.253       .  A
O871      Al1215   1.851   1_545  S
O872       Al876   1.659       .  S
O873        C874   1.269       .  A
C875        C897   1.600       .  S
C878       O1221   1.282       .  A
C878       C1055   1.451       .  S
C879        O880   1.291       .  A
C879       C1010   1.451       .  S
O881        C896   1.279       .  A
O881       Al889   1.961       .  S
C882        O883   1.262       .  A
O884        C886   1.291       .  A
O884       Al885   1.734       .  S
Al885       O895   1.875       .  S
Al885       O894   1.573       .  S
C886        O899   1.363       .  A
O887        C897   1.311       .  A
O887       Al889   2.066       .  S
O888        C901   1.250       .  A
O888       Al898   1.861       .  S
Al889       O902   1.998       .  S
Al889       O899   2.257       .  S
Al889       O894   1.754       .  S
O890        C897   1.296       .  A
O890       Al898   2.053       .  S
O891        C900   1.282       .  A
O892       Al898   1.853       .  S
O893        C900   1.253       .  A
O894       Al898   1.659       .  S
O895        C896   1.269       .  A
C896        C923   1.461       .  S
C901        O902   1.291       .  A
O903        C918   1.291       .  A
O903       Al911   1.998       .  S
C904        O914   1.262       .  A
O905       Al907   1.853       .  S
O906        C908   1.296       .  A
O906       Al907   2.053       .  S
Al907       O917   1.861       .  S
Al907       O916   1.659       .  S
C908        O921   1.310       .  A
O909        C919   1.362       .  A
O909       Al911   2.257       .  S
O910        C923   1.269       .  A
Al911       O924   1.961       .  S
Al911       O921   2.066       .  S
Al911       O916   1.754       .  S
O912        C919   1.291       .  A
O913        C922   1.253       .  A
O913       Al920   1.851       .  S
O914       Al920   1.804       .  S
O915        C922   1.282       .  A
O917        C918   1.250       .  A
C923        O924   1.279       .  A
O925        C940   1.279       .  A
O925       Al933   1.961       .  S
C926        O927   1.262       .  A
O927       Al929   1.804       .  S
O928        C930   1.291   1_455  A
Al929       O937   1.851       .  S
C930        O943   1.363       .  A
O931        C941   1.311       .  A
O931       Al933   2.066       .  S
O932        C945   1.250       .  A
O932       Al942   1.861       .  S
Al933       O946   1.998       .  S
Al933       O943   2.257       .  S
Al933       O938   1.754       .  S
O934        C941   1.296       .  A
O934       Al942   2.053       .  S
O935        C944   1.282       .  A
O936       Al942   1.853   1_455  S
O937        C944   1.253       .  A
O938       Al942   1.659       .  S
O939        C940   1.269   1_455  A
C940        C967   1.461       .  S
C945        O946   1.291       .  A
O947        C962   1.291       .  A
O947       Al955   1.998       .  S
C948        O958   1.262       .  A
O949       Al951   1.853   1_455  S
O950        C952   1.296       .  A
O950       Al951   2.053       .  S
Al951       O961   1.861       .  S
Al951       O960   1.659       .  S
C952        O965   1.311       .  A
O953        C963   1.363       .  A
O953       Al955   2.257       .  S
O954        C967   1.269   1_455  A
Al955       O968   1.960       .  S
Al955       O965   2.066       .  S
Al955       O960   1.754       .  S
O956        C963   1.291   1_455  A
O957        C966   1.253       .  A
O957       Al964   1.851       .  S
O958       Al964   1.804       .  S
O959        C966   1.282       .  A
O961        C962   1.250       .  A
C967        O968   1.279       .  A
O969        C984   1.291       .  A
O969       Al977   1.998       .  S
C970        O980   1.262       .  A
O971       Al973   1.853   1_455  S
O972        C974   1.296       .  A
O972       Al973   2.053       .  S
Al973       O981   1.947   1_655  S
Al973       O983   1.861       .  S
Al973       O982   1.659       .  S
C974        O987   1.311       .  A
O975        C985   1.363       .  A
O975       Al977   2.257       .  S
O976        C989   1.269   1_455  A
Al977       O990   1.961       .  S
Al977       O987   2.066       .  S
Al977       O982   1.754       .  S
O978        C985   1.291   1_455  A
O979        C988   1.253       .  A
O979       Al986   1.851       .  S
O980       Al986   1.804       .  S
O983        C984   1.250       .  A
C989        O990   1.279       .  A
C989       C1006   1.462   1_556  S
O991       C1006   1.279       .  A
O991       Al999   1.961       .  S
C992        O993   1.262       .  A
O993       Al995   1.804       .  S
O994        C996   1.291   1_455  A
Al995      O1003   1.851       .  S
C996       O1009   1.363       .  A
O997       C1007   1.311       .  A
O997       Al999   2.066       .  S
O998       C1011   1.250       .  A
O998      Al1008   1.861       .  S
Al999      O1012   1.998       .  S
Al999      O1009   2.258       .  S
Al999      O1004   1.754       .  S
O1000      C1007   1.296       .  A
O1000     Al1008   2.053       .  S
O1001      C1010   1.282       .  A
O1002     Al1008   1.853   1_455  S
O1003      C1010   1.253       .  A
O1004     Al1008   1.659       .  S
O1005      C1006   1.269   1_455  A
C1011      O1012   1.291       .  A
O1013      C1028   1.291       .  A
O1013     Al1021   1.998       .  S
C1014      O1024   1.262       .  A
O1015     Al1017   1.853       .  S
O1016      C1018   1.296       .  A
O1016     Al1017   2.053       .  S
Al1017     O1025   1.947       .  S
Al1017     O1027   1.861       .  S
Al1017     O1026   1.659       .  S
C1018      O1031   1.311       .  A
O1019      C1029   1.363       .  A
O1019     Al1021   2.257       .  S
O1020      C1033   1.269       .  A
O1020     Al1030   1.875       .  S
Al1021     O1034   1.961       .  S
Al1021     O1031   2.066       .  S
Al1021     O1026   1.754       .  S
O1022      C1029   1.291       .  A
O1022     Al1030   1.734       .  S
O1023      C1032   1.253       .  A
O1026     Al1030   1.573       .  S
O1027      C1028   1.250       .  A
C1033      O1034   1.279       .  A
C1033      C1050   1.461   1_556  S
O1035      C1050   1.279       .  A
O1035     Al1043   1.961       .  S
C1036      O1037   1.262       .  A
O1038      C1040   1.291       .  A
O1038     Al1039   1.734       .  S
Al1039     O1049   1.875       .  S
Al1039     O1048   1.573       .  S
C1040      O1053   1.363       .  A
O1041      C1051   1.311       .  A
O1041     Al1043   2.066       .  S
O1042      C1055   1.250       .  A
O1042     Al1052   1.861       .  S
Al1043     O1056   1.998       .  S
Al1043     O1053   2.258       .  S
Al1043     O1048   1.754       .  S
O1044      C1051   1.296       .  A
O1044     Al1052   2.053       .  S
O1045      C1054   1.282       .  A
O1046     Al1052   1.853       .  S
O1047      C1054   1.253       .  A
O1048     Al1052   1.659       .  S
O1049      C1050   1.269       .  A
C1055      O1056   1.291       .  A
O1057      C1072   1.279       .  A
O1057     Al1065   1.961       .  S
C1058      O1068   1.263       .  A
C1058      C1168   1.394       .  S
O1060      C1062   1.291   1_545  A
O1060     Al1061   1.734   1_545  S
Al1061     O1071   1.875       .  S
Al1061     O1070   1.573       .  S
C1062      O1075   1.363       .  A
O1063      C1073   1.311       .  A
O1063     Al1065   2.066       .  S
O1064      C1077   1.250       .  A
O1064     Al1074   1.861       .  S
Al1065     O1078   1.998       .  S
Al1065     O1075   2.258       .  S
Al1065     O1070   1.754       .  S
O1066      C1073   1.296       .  A
O1066     Al1074   2.053       .  S
O1067     Al1074   1.947   1_545  S
O1068     Al1074   1.853       .  S
O1069      C1076   1.253       .  A
O1070     Al1074   1.659       .  S
O1071      C1072   1.269       .  A
C1072      C1099   1.461       .  S
C1073      C1359   1.600       .  S
C1076      C1297   1.451       .  S
C1077      O1078   1.291       .  A
C1077      C1252   1.451       .  S
O1079      C1094   1.291       .  A
O1079     Al1087   1.998       .  S
C1080      O1081   1.263       .  A
C1080      C1146   1.394       .  S
O1081     Al1083   1.853       .  S
O1082      C1084   1.296       .  A
O1082     Al1083   2.053       .  S
Al1083     O1091   1.947   1_565  S
Al1083     O1093   1.861       .  S
Al1083     O1092   1.659       .  S
C1084      O1097   1.310       .  A
C1084      C1326   1.600       .  S
O1085      C1095   1.363       .  A
O1085     Al1087   2.257       .  S
O1086      C1099   1.269       .  A
O1086     Al1096   1.875       .  S
Al1087     O1100   1.961       .  S
Al1087     O1097   2.066       .  S
Al1087     O1092   1.754       .  S
O1088      C1095   1.291   1_545  A
O1088     Al1096   1.735   1_545  S
O1089      C1098   1.253       .  A
O1092     Al1096   1.573       .  S
O1093      C1094   1.250       .  A
C1094      C1274   1.451       .  S
C1098      C1314   1.451       .  S
C1099      O1100   1.279       .  A
O1101      C1116   1.279       .  A
O1101     Al1109   1.961       .  S
C1102      O1112   1.263       .  A
C1102      O1103   1.262       .  A
C1102      C1212   1.394       .  S
O1103     Al1105   1.804       .  S
O1104      C1106   1.291       .  A
Al1105     O1113   1.851       .  S
C1106      O1119   1.363       .  A
O1107      C1117   1.311       .  A
O1107     Al1109   2.066       .  S
O1108      C1121   1.250       .  A
O1108     Al1118   1.861       .  S
Al1109     O1122   1.998       .  S
Al1109     O1119   2.258       .  S
Al1109     O1114   1.754       .  S
O1110      C1117   1.296       .  A
O1110     Al1118   2.053       .  S
O1111      C1120   1.282       .  A
O1113      C1120   1.253       .  A
O1114     Al1118   1.659       .  S
O1115      C1116   1.269       .  A
C1116      C1143   1.462       .  S
C1117      C1403   1.600       .  S
C1120      C1253   1.451       .  S
C1121      O1122   1.291       .  A
C1121      C1296   1.451       .  S
O1123      C1138   1.291       .  A
O1123     Al1131   1.998       .  S
C1124      O1134   1.262       .  A
C1124      O1125   1.263       .  A
C1124      C1190   1.394       .  S
O1126      C1128   1.296       .  A
O1126     Al1127   2.053       .  S
Al1127     O1137   1.861       .  S
Al1127     O1136   1.659       .  S
C1128      O1141   1.311       .  A
C1128      C1370   1.600       .  S
O1129      C1139   1.363       .  A
O1129     Al1131   2.258       .  S
O1130     Al1140   1.875       .  S
Al1131     O1144   1.961       .  S
Al1131     O1141   2.066       .  S
Al1131     O1136   1.754       .  S
O1132      C1139   1.291       .  A
O1133      C1142   1.253       .  A
O1133     Al1140   1.851       .  S
O1134     Al1140   1.804       .  S
O1135      C1142   1.282       .  A
O1137      C1138   1.250       .  A
C1138      C1318   1.451       .  S
C1142      C1270   1.451       .  S
C1143      O1144   1.279       .  A
O1145      C1160   1.290       .  A
O1145     Al1153   1.998       .  S
C1146      O1156   1.262       .  A
C1146      O1147   1.263       .  A
O1148      C1150   1.296       .  A
O1148     Al1149   2.053       .  S
Al1149     O1159   1.861       .  S
Al1149     O1158   1.659       .  S
C1150      O1163   1.311       .  A
C1150      C1304   1.600       .  S
O1151      C1161   1.363       .  A
O1151     Al1153   2.257       .  S
O1152     Al1162   1.875       .  S
Al1153     O1166   1.960       .  S
Al1153     O1163   2.066       .  S
Al1153     O1158   1.754       .  S
O1154      C1161   1.291       .  A
O1155      C1164   1.253       .  A
O1155     Al1162   1.851       .  S
O1156     Al1162   1.804       .  S
O1157      C1164   1.282       .  A
O1159      C1160   1.250       .  A
C1160      C1384   1.451       .  S
C1164      C1336   1.451       .  S
C1165      O1166   1.279       .  A
C1165      C1182   1.462   1_556  S
O1167      C1182   1.279       .  A
O1167     Al1175   1.961       .  S
C1168      O1178   1.263       .  A
C1168      O1169   1.262       .  A
O1169     Al1171   1.804       .  S
O1170      C1172   1.291       .  A
Al1171     O1179   1.851       .  S
C1172      O1185   1.363       .  A
O1173      C1183   1.311       .  A
O1173     Al1175   2.066       .  S
O1174      C1187   1.250       .  A
O1174     Al1184   1.861       .  S
Al1175     O1188   1.998       .  S
Al1175     O1185   2.257       .  S
Al1175     O1180   1.754       .  S
O1176      C1183   1.296       .  A
O1176     Al1184   2.053       .  S
O1177      C1186   1.282       .  A
O1179      C1186   1.253       .  A
O1180     Al1184   1.659       .  S
O1181      C1182   1.269       .  A
C1183      C1293   1.600       .  S
C1186      C1363   1.451       .  S
C1187      O1188   1.291       .  A
C1187      C1406   1.451       .  S
O1189      C1204   1.291       .  A
O1189     Al1197   1.998       .  S
C1190      O1191   1.263       .  A
O1191     Al1193   1.853       .  S
O1192      C1194   1.296       .  A
O1192     Al1193   2.053       .  S
Al1193     O1201   1.947   1_565  S
Al1193     O1203   1.861       .  S
Al1193     O1202   1.659       .  S
C1194      O1207   1.310       .  A
C1194      C1260   1.600       .  S
O1195      C1205   1.362       .  A
O1195     Al1197   2.257       .  S
O1196      C1209   1.269       .  A
O1196     Al1206   1.875       .  S
Al1197     O1210   1.961       .  S
Al1197     O1207   2.066       .  S
Al1197     O1202   1.754       .  S
O1198      C1205   1.291   1_545  A
O1198     Al1206   1.735   1_545  S
O1199      C1208   1.253       .  A
O1202     Al1206   1.573       .  S
O1203      C1204   1.250       .  A
C1204      C1340   1.451       .  S
C1208      C1380   1.451       .  S
C1209      O1210   1.279       .  A
C1209      C1226   1.461   1_556  S
O1211      C1226   1.279       .  A
O1211     Al1219   1.960       .  S
C1212      O1222   1.263       .  A
O1214      C1216   1.291   1_545  A
O1214     Al1215   1.734   1_545  S
Al1215     O1225   1.875       .  S
Al1215     O1224   1.573       .  S
C1216      O1229   1.363       .  A
O1217      C1227   1.311       .  A
O1217     Al1219   2.066       .  S
O1218      C1231   1.250       .  A
O1218     Al1228   1.861       .  S
Al1219     O1232   1.998       .  S
Al1219     O1229   2.257       .  S
Al1219     O1224   1.754       .  S
O1220      C1227   1.296       .  A
O1220     Al1228   2.053       .  S
O1221     Al1228   1.947   1_545  S
O1222     Al1228   1.853       .  S
O1223      C1230   1.253       .  A
O1224     Al1228   1.659       .  S
O1225      C1226   1.269       .  A
C1227      C1249   1.600       .  S
C1230      C1407   1.451       .  S
C1231      O1232   1.291       .  A
C1231      C1362   1.451       .  S
O1233      C1248   1.279       .  A
O1233     Al1241   1.961       .  S
C1234      O1235   1.262       .  A
O1236      C1238   1.291       .  A
O1236     Al1237   1.734       .  S
Al1237     O1247   1.875       .  S
Al1237     O1246   1.573       .  S
C1238      O1251   1.363       .  A
O1239      C1249   1.311       .  A
O1239     Al1241   2.066       .  S
O1240      C1253   1.250       .  A
O1240     Al1250   1.861       .  S
Al1241     O1254   1.998       .  S
Al1241     O1251   2.257       .  S
Al1241     O1246   1.754       .  S
O1242      C1249   1.296       .  A
O1242     Al1250   2.053       .  S
O1243      C1252   1.282       .  A
O1244     Al1250   1.853       .  S
O1245      C1252   1.253       .  A
O1246     Al1250   1.659       .  S
O1247      C1248   1.269       .  A
C1248      C1275   1.461       .  S
C1253      O1254   1.291       .  A
O1255      C1270   1.291       .  A
O1255     Al1263   1.998       .  S
C1256      O1266   1.262       .  A
O1257     Al1259   1.853       .  S
O1258      C1260   1.296       .  A
O1258     Al1259   2.053       .  S
Al1259     O1269   1.861       .  S
Al1259     O1268   1.659       .  S
C1260      O1273   1.310       .  A
O1261      C1271   1.362       .  A
O1261     Al1263   2.257       .  S
O1262      C1275   1.269       .  A
Al1263     O1276   1.961       .  S
Al1263     O1273   2.066       .  S
Al1263     O1268   1.754       .  S
O1264      C1271   1.291       .  A
O1265      C1274   1.253       .  A
O1265     Al1272   1.851       .  S
O1266     Al1272   1.804       .  S
O1267      C1274   1.282       .  A
O1269      C1270   1.250       .  A
C1275      O1276   1.279       .  A
O1277      C1292   1.279       .  A
O1277     Al1285   1.961       .  S
C1278      O1279   1.262       .  A
O1279     Al1281   1.804       .  S
O1280      C1282   1.291   1_455  A
Al1281     O1289   1.851       .  S
C1282      O1295   1.363       .  A
O1283      C1293   1.311       .  A
O1283     Al1285   2.066       .  S
O1284      C1297   1.250       .  A
O1284     Al1294   1.861       .  S
Al1285     O1298   1.998       .  S
Al1285     O1295   2.257       .  S
Al1285     O1290   1.754       .  S
O1286      C1293   1.296       .  A
O1286     Al1294   2.053       .  S
O1287      C1296   1.282       .  A
O1288     Al1294   1.853   1_455  S
O1289      C1296   1.253       .  A
O1290     Al1294   1.659       .  S
O1291      C1292   1.269   1_455  A
C1292      C1319   1.461       .  S
C1297      O1298   1.291       .  A
O1299      C1314   1.291       .  A
O1299     Al1307   1.998       .  S
C1300      O1310   1.262       .  A
O1301     Al1303   1.853   1_455  S
O1302      C1304   1.296       .  A
O1302     Al1303   2.053       .  S
Al1303     O1313   1.861       .  S
Al1303     O1312   1.659       .  S
C1304      O1317   1.311       .  A
O1305      C1315   1.363       .  A
O1305     Al1307   2.257       .  S
O1306      C1319   1.269   1_455  A
Al1307     O1320   1.960       .  S
Al1307     O1317   2.066       .  S
Al1307     O1312   1.754       .  S
O1308      C1315   1.291   1_455  A
O1309      C1318   1.253       .  A
O1309     Al1316   1.851       .  S
O1310     Al1316   1.804       .  S
O1311      C1318   1.282       .  A
O1313      C1314   1.250       .  A
C1319      O1320   1.279       .  A
O1321      C1336   1.291       .  A
O1321     Al1329   1.998       .  S
C1322      O1332   1.262       .  A
O1323     Al1325   1.853   1_455  S
O1324      C1326   1.296       .  A
O1324     Al1325   2.053       .  S
Al1325     O1333   1.947   1_655  S
Al1325     O1335   1.861       .  S
Al1325     O1334   1.659       .  S
C1326      O1339   1.311       .  A
O1327      C1337   1.363       .  A
O1327     Al1329   2.257       .  S
O1328      C1341   1.269   1_455  A
Al1329     O1342   1.961       .  S
Al1329     O1339   2.066       .  S
Al1329     O1334   1.754       .  S
O1330      C1337   1.291   1_455  A
O1331      C1340   1.253       .  A
O1331     Al1338   1.851       .  S
O1332     Al1338   1.804       .  S
O1335      C1336   1.250       .  A
C1341      O1342   1.279       .  A
C1341      C1358   1.462   1_556  S
O1343      C1358   1.279       .  A
O1343     Al1351   1.961       .  S
C1344      O1345   1.262       .  A
O1345     Al1347   1.804       .  S
O1346      C1348   1.291   1_455  A
Al1347     O1355   1.851       .  S
C1348      O1361   1.363       .  A
O1349      C1359   1.311       .  A
O1349     Al1351   2.066       .  S
O1350      C1363   1.250       .  A
O1350     Al1360   1.861       .  S
Al1351     O1364   1.998       .  S
Al1351     O1361   2.258       .  S
Al1351     O1356   1.754       .  S
O1352      C1359   1.296       .  A
O1352     Al1360   2.053       .  S
O1353      C1362   1.282       .  A
O1354     Al1360   1.853   1_455  S
O1355      C1362   1.253       .  A
O1356     Al1360   1.659       .  S
O1357      C1358   1.269   1_455  A
C1363      O1364   1.291       .  A
O1365      C1380   1.291       .  A
O1365     Al1373   1.998       .  S
C1366      O1376   1.262       .  A
O1367     Al1369   1.853       .  S
O1368      C1370   1.296       .  A
O1368     Al1369   2.053       .  S
Al1369     O1377   1.947       .  S
Al1369     O1379   1.861       .  S
Al1369     O1378   1.659       .  S
C1370      O1383   1.311       .  A
O1371      C1381   1.363       .  A
O1371     Al1373   2.257       .  S
O1372      C1385   1.269       .  A
O1372     Al1382   1.875       .  S
Al1373     O1386   1.961       .  S
Al1373     O1383   2.066       .  S
Al1373     O1378   1.754       .  S
O1374      C1381   1.291       .  A
O1374     Al1382   1.734       .  S
O1375      C1384   1.253       .  A
O1378     Al1382   1.573       .  S
O1379      C1380   1.250       .  A
C1385      O1386   1.279       .  A
C1385      C1402   1.461   1_556  S
O1387      C1402   1.279       .  A
O1387     Al1395   1.961       .  S
C1388      O1389   1.262       .  A
O1390      C1392   1.291       .  A
O1390     Al1391   1.734       .  S
Al1391     O1401   1.875       .  S
Al1391     O1400   1.573       .  S
C1392      O1405   1.363       .  A
O1393      C1403   1.311       .  A
O1393     Al1395   2.066       .  S
O1394      C1407   1.250       .  A
O1394     Al1404   1.861       .  S
Al1395     O1408   1.998       .  S
Al1395     O1405   2.258       .  S
Al1395     O1400   1.754       .  S
O1396      C1403   1.296       .  A
O1396     Al1404   2.053       .  S
O1397      C1406   1.282       .  A
O1398     Al1404   1.853       .  S
O1399      C1406   1.253       .  A
O1400     Al1404   1.659       .  S
O1401      C1402   1.269       .  A
C1407      O1408   1.291       .  A
