geometry optimzed in LAMMPS
_audit_creation_date              2020-12-01 
_audit_creation_method            'lammps2cif' 
_symmetry_space_group_name_H-M    'P1' 
_symmetry_Int_Tables_number       1 
_symmetry_cell_setting            triclinic 
loop_ 
_symmetry_equiv_pos_as_xyz 
  x,y,z 
_cell_length_a                    47.4243329 
_cell_length_b                    47.00144178338154 
_cell_length_c                    38.75874152840369 
_cell_angle_alpha                 89.61948116166575 
_cell_angle_beta                  90.22800888746605 
_cell_angle_gamma                 120.36642606881321 
loop_ 
_atom_site_label 
_atom_site_type_symbol 
_atom_site_fract_x 
_atom_site_fract_y 
_atom_site_fract_z 
_atom_site_charge 
Fe1        Fe  0.59852540  0.50996751  0.09528045     1.65800
Fe2        Fe  0.58321466  0.52081325  0.17725211     1.73200
Fe3        Fe  0.56558467  0.55709532  0.11271420     1.54400
O4          O  0.60127065  0.57950135  0.07454706    -0.82200
O5          O  0.53417064  0.50297867  0.18163761    -0.80500
O6          O  0.63196850  0.55617909  0.07919176    -0.84700
O7          O  0.56518184  0.50586715  0.05565211    -0.79500
O8          O  0.59690004  0.59464854  0.14340629    -0.81300
O9          O  0.57276051  0.47256836  0.16924470    -0.84100
C10         C  0.54088110  0.51066727  0.05480370     0.96700
C11         C  0.62827526  0.58018759  0.07102028     1.04100
O12         O  0.58203839  0.52894503  0.12844261    -1.13000
O13         O  0.63202662  0.53854003  0.17526964    -0.75500
O14         O  0.63552556  0.51357469  0.12845726    -0.79000
O15         O  0.53326407  0.52130233  0.08078234    -0.79700
C16         C  0.64811899  0.53070452  0.15558834     0.95600
O17         O  0.56655084  0.46287275  0.11277738    -0.77600
O18         O  0.59438431  0.56825514  0.19196637    -0.82800
C19         C  0.51813402  0.51660639  0.17230993     0.98200
C20         C  0.60241500  0.59471719  0.17521745     1.04100
O21         O  0.52854439  0.53938378  0.14961771    -0.78500
C22         C  0.56333590  0.45268152  0.14384418     1.02400
Fe23       Fe  0.46092299  0.49110716  0.35252054     1.65800
Fe24       Fe  0.38066213  0.44357502  0.33908478     1.73200
Fe25       Fe  0.40909783  0.50472745  0.39755400     1.54400
O26         O  0.44875038  0.51000377  0.42780589    -0.82200
O27         O  0.36133233  0.47195414  0.32493883    -0.80500
O28         O  0.46816771  0.48110094  0.40217874    -0.84700
O29         O  0.48063506  0.54085630  0.36404977    -0.79500
O30         O  0.37932395  0.46322545  0.42572594    -0.81300
O31         O  0.40602746  0.45656555  0.29172764    -0.84100
C32         C  0.46798623  0.55910730  0.36307221     0.96700
C33         C  0.46565054  0.49558072  0.42849255     1.04100
O34         O  0.41651407  0.47949132  0.36324774    -1.13000
O35         O  0.39698749  0.41215375  0.35153230    -0.75500
O36         O  0.44869052  0.44372755  0.33696474    -0.79000
O37         O  0.43816437  0.54787963  0.37044857    -0.79700
C38         C  0.42304471  0.41553879  0.33911950     0.95600
O39         O  0.45420210  0.50146266  0.30321547    -0.77600
O40         O  0.35212005  0.42701704  0.38372854    -0.82800
C41         C  0.35310450  0.48817593  0.34404381     0.98200
C42         C  0.35637869  0.43554496  0.41539222     1.04100
O43         O  0.36764919  0.50056189  0.37255781    -0.78500
C44         C  0.43298355  0.48160007  0.28206921     1.02400
Fe45       Fe  0.58389422  0.74363504  0.26059831     1.65800
Fe46       Fe  0.61608787  0.76195857  0.34082853     1.73200
Fe47       Fe  0.66648920  0.78174160  0.27151545     1.54400
O48         O  0.65176988  0.74163347  0.23861985    -0.82200
O49         O  0.64927257  0.81107607  0.34457926    -0.80500
O50         O  0.59725132  0.71146054  0.24255050    -0.84700
O51         O  0.60798574  0.77621138  0.21899125    -0.79500
O52         O  0.67930781  0.75671993  0.30471914    -0.81300
O53         O  0.57992075  0.77454895  0.33546779    -0.84100
C54         C  0.63657823  0.80072353  0.21377416     0.96700
C55         C  0.62474546  0.71467283  0.23514040     1.04100
O56         O  0.62232854  0.76291962  0.29097036    -1.13000
O57         O  0.58281319  0.71286976  0.34174071    -0.75500
O58         O  0.55315328  0.70609772  0.29516467    -0.79000
O59         O  0.65931362  0.80903364  0.23536145    -0.79700
C60         C  0.55813076  0.69524190  0.32334611     0.95600
O61         O  0.56845521  0.77460988  0.27963846    -0.77600
O62         O  0.65076431  0.74839239  0.35250905    -0.82800
C63         C  0.67555735  0.83106389  0.32923185     0.98200
C64         C  0.67194773  0.74571175  0.33502891     1.04100
O65         O  0.68626040  0.82324863  0.30306129    -0.78500
C66         C  0.56592886  0.78108400  0.31098865     1.02400
Fe67       Fe  0.69856364  0.87325655  0.00720591     1.65800
Fe68       Fe  0.73363277  0.95549335  0.00237842     1.73200
Fe69       Fe  0.76281411  0.92102911  0.05822642     1.54400
O70         O  0.72644480  0.88086483  0.08633133    -0.82200
O71         O  0.78580539  0.97437718  0.48920363    -0.80500
O72         O  0.67979049  0.86036541  0.05640060    -0.84700
O73         O  0.72741171  0.85186860  0.01439926    -0.79500
O74         O  0.75256457  0.95006274  0.08839268    -0.81300
O75         O  0.72625196  0.93750214  0.45164055    -0.84100
C76         C  0.75812857  0.86449322  0.01732746     0.96700
C77         C  0.69524800  0.86361812  0.08436434     1.04100
O78         O  0.73172567  0.91677145  0.02285219    -1.13000
O79         O  0.68583837  0.93872410  0.01387820    -0.75500
O80         O  0.66464522  0.88759270  0.99505401    -0.79000
O81         O  0.77603860  0.89264635  0.03043971    -0.79700
C82         C  0.66282576  0.91330471  0.99997236     0.95600
O83         O  0.71796931  0.88662697  0.45724681    -0.77600
O84         O  0.74642612  0.98107277  0.04865952    -0.82800
C85         C  0.80545052  0.97903316  0.00733269     0.98200
C86         C  0.75069992  0.97499105  0.07965510     1.04100
O87         O  0.80224806  0.96270692  0.03497535    -0.78500
C88         C  0.72281676  0.91108549  0.43885406     1.02400
Fe89       Fe  0.90975214  0.39778358  0.09241575     1.65800
Fe90       Fe  0.93533087  0.41755999  0.17293509     1.73200
Fe91       Fe  0.99044615  0.43445370  0.11157574     1.54400
O92         O  0.97883691  0.39845289  0.07395383    -0.82200
O93         O  0.96216613  0.46726435  0.16834223    -0.80500
O94         O  0.92462997  0.36634419  0.07661708    -0.84700
O95         O  0.93791448  0.43294551  0.05414265    -0.79500
O96         O  0.99597034  0.40362334  0.14460979    -0.81300
O97         O  0.89409834  0.42120465  0.16416331    -0.84100
C98         C  0.96639510  0.45879543  0.05322979     0.96700
C99         C  0.95266407  0.37087051  0.06966313     1.04100
O100        O  0.94505459  0.41613781  0.12527704    -1.13000
O101        O  0.90778855  0.36786349  0.17511897    -0.75500
O102        O  0.87876604  0.35975390  0.12688664    -0.79000
O103        O  0.98715235  0.46570826  0.07712350    -0.79700
C104        C  0.88455254  0.34930846  0.15516382     0.95600
O105        O  0.89250162  0.42824431  0.10801895    -0.77600
O106        O  0.97520509  0.41359356  0.19089114    -0.82800
C107        C  0.99278509  0.48119794  0.16927008     0.98200
C108        C  0.99339534  0.40422191  0.17695567     1.04100
O109        O  0.00811139  0.47172897  0.14979187    -0.78500
C110        C  0.88462845  0.43111405  0.13850587     1.02400
Fe111      Fe  0.03502075  0.54065529  0.35619144     1.65800
Fe112      Fe  0.07123701  0.62003352  0.33578060     1.73200
Fe113      Fe  0.09535459  0.59475513  0.40528437     1.54400
O114        O  0.05793889  0.55564165  0.43445733    -0.82200
O115        O  0.11882637  0.63381800  0.32806201    -0.80500
O116        O  0.01262851  0.53519763  0.40252619    -0.84700
O117        O  0.06270677  0.52189382  0.37668092    -0.79500
O118        O  0.08066807  0.62521124  0.42544117    -0.81300
O119        O  0.05940088  0.59095703  0.29120575    -0.84100
C120        C  0.09358151  0.53509590  0.37636608     0.96700
C121        C  0.02675060  0.53813838  0.43122526     1.04100
O122        O  0.06638579  0.58551888  0.36657170    -1.13000
O123        O  0.02308601  0.60664309  0.34108349    -0.75500
O124        O  0.00270496  0.55304322  0.33325585    -0.79000
O125        O  0.11168079  0.56512848  0.38456976    -0.79700
C126        C  0.00028367  0.57880332  0.33107529     0.95600
O127        O  0.05851092  0.54604550  0.31062689    -0.77600
O128        O  0.08256477  0.65260205  0.37724573    -0.82800
C129        C  0.14041568  0.64746088  0.35108032     0.98200
C130        C  0.08182365  0.64978509  0.41013548     1.04100
O131        O  0.13507127  0.63625222  0.38188041    -0.78500
C132        C  0.05679949  0.56298237  0.28617428     1.02400
Fe133      Fe  0.82880514  0.74753898  0.42147001     1.65800
Fe134      Fe  0.82193583  0.72841983  0.00573070     1.73200
Fe135      Fe  0.77826998  0.66563215  0.44008312     1.54400
O136        O  0.75038467  0.68017126  0.41263655    -0.82200
O137        O  0.83578766  0.69380693  0.01032258    -0.80500
O138        O  0.78561620  0.73143745  0.39499455    -0.84700
O139        O  0.84309915  0.72192767  0.38875388    -0.79500
O140        O  0.74575479  0.65470229  0.47891036    -0.81300
O141        O  0.86655643  0.75040811  0.49861710    -0.84100
C142        C  0.83019168  0.69141527  0.38178088     0.96700
C143        C  0.75706829  0.70650234  0.39682233     1.04100
O144        O  0.80839012  0.71122511  0.45564938    -1.13000
O145        O  0.80832547  0.76314257  0.00380323    -0.75500
O146        O  0.81606155  0.77694906  0.44923488    -0.79000
O147        O  0.80587981  0.66929111  0.39809187    -0.79700
C148        C  0.80961407  0.77901196  0.48061464     0.95600
O149        O  0.87441385  0.76929620  0.44467215    -0.77600
O150        O  0.77508933  0.69502170  0.02368068    -0.82800
C151        C  0.82159088  0.66400823  0.00046798     0.98200
C152        C  0.74803666  0.67535338  0.00934043     1.04100
O153        O  0.80212149  0.64633803  0.46794877    -0.78500
C154        C  0.88513825  0.76851447  0.47453210     1.02400
Fe155      Fe  0.84935219  0.63145210  0.18322576     1.65800
Fe156      Fe  0.88998848  0.59246201  0.16675728     1.73200
Fe157      Fe  0.83409237  0.56523758  0.22991818     1.54400
O158        O  0.83219876  0.60159219  0.25998447    -0.82200
O159        O  0.85688333  0.54500117  0.15442894    -0.80500
O160        O  0.86237684  0.64931077  0.23232317    -0.84700
O161        O  0.80056258  0.60359489  0.19737418    -0.79500
O162        O  0.87656574  0.57657342  0.25502408    -0.81300
O163        O  0.87720284  0.60683887  0.12038785    -0.84100
C164        C  0.78121567  0.57255219  0.19672745     0.96700
C165        C  0.84792295  0.63320205  0.25933698     1.04100
O166        O  0.85810184  0.59642909  0.19348761    -1.13000
O167        O  0.92481828  0.63966976  0.17778404    -0.75500
O168        O  0.89656431  0.66397212  0.16554383    -0.79000
O169        O  0.79073635  0.55261089  0.20512128    -0.79700
C170        C  0.92335227  0.66388728  0.16594117     0.95600
O171        O  0.83572286  0.61419493  0.13424093    -0.77600
O172        O  0.90660558  0.57823248  0.20990176    -0.82800
C173        C  0.84339221  0.52142327  0.17576684     0.98200
C174        C  0.90121992  0.57662254  0.24231353     1.04100
O175        O  0.83471348  0.52551209  0.20558775    -0.78500
C176        C  0.85354337  0.61115747  0.11199929     1.02400
Fe177      Fe  0.79559535  0.14724237  0.18792055     1.65800
Fe178      Fe  0.71540690  0.10166559  0.17188259     1.73200
Fe179      Fe  0.74319830  0.15881516  0.23437247     1.54400
O180        O  0.78177262  0.16255946  0.26483075    -0.82200
O181        O  0.69934404  0.13317803  0.15922974    -0.80500
O182        O  0.80248159  0.13583795  0.23718572    -0.84700
O183        O  0.81505215  0.19642995  0.20057108    -0.79500
O184        O  0.71251320  0.11586543  0.25981089    -0.81300
O185        O  0.74181633  0.11538795  0.12547187    -0.84100
C186        C  0.80188154  0.21418089  0.20007567     0.96700
C187        C  0.79856737  0.14817541  0.26450973     1.04100
O188        O  0.75113803  0.13534633  0.19843391    -1.13000
O189        O  0.72972779  0.06801199  0.18212925    -0.75500
O190        O  0.78261659  0.10025149  0.17205693    -0.79000
O191        O  0.77254017  0.20283265  0.20938936    -0.79700
C192        C  0.75684306  0.07202202  0.17202844     0.95600
O193        O  0.79014635  0.15913399  0.13849662    -0.77600
O194        O  0.68453107  0.08446865  0.21507566    -0.82800
C195        C  0.68960607  0.14693182  0.18012197     0.98200
C196        C  0.68734345  0.09116641  0.24724473     1.04100
O197        O  0.70273606  0.15645363  0.20967421    -0.78500
C198        C  0.76892820  0.14050758  0.11665860     1.02400
Fe199      Fe  0.93195527  0.16753562  0.43076154     1.65800
Fe200      Fe  0.91619147  0.17807042  0.01153766     1.73200
Fe201      Fe  0.89514101  0.21209031  0.44526876     1.54400
O202        O  0.93226445  0.23664960  0.40907830    -0.82200
O203        O  0.86820325  0.16480853  0.01753296    -0.80500
O204        O  0.96358479  0.21401259  0.41387174    -0.84700
O205        O  0.89831568  0.15963662  0.39103668    -0.79500
O206        O  0.92363037  0.24978766  0.47768475    -0.81300
O207        O  0.90488406  0.12940030  0.50433438    -0.84100
C208        C  0.87323116  0.16282586  0.38799130     0.96700
C209        C  0.95944103  0.23772436  0.40564263     1.04100
O210        O  0.91271734  0.18505493  0.46240538    -1.13000
O211        O  0.96420294  0.19065996  0.01055442    -0.75500
O212        O  0.96902361  0.17421593  0.46507630    -0.79000
O213        O  0.86563338  0.17691358  0.41080864    -0.79700
C214        C  0.97974737  0.19062835  0.49284577     0.95600
O215        O  0.90214070  0.12006579  0.44796157    -0.77600
O216        O  0.93181529  0.22588759  0.02741710    -0.82800
C217        C  0.84865224  0.17219879  0.00318453     0.98200
C218        C  0.93227507  0.25064561  0.01364291     1.04100
O219        O  0.85633848  0.19197935  0.48041799    -0.78500
C220        C  0.89811856  0.10987288  0.47901913     1.02400
Fe221      Fe  0.16210733  0.42421756  0.26739919     1.65800
Fe222      Fe  0.15228016  0.39406285  0.34807710     1.73200
Fe223      Fe  0.11406290  0.34257362  0.28271698     1.54400
O224        O  0.09090721  0.35781040  0.24708954    -0.82200
O225        O  0.17051237  0.36301111  0.34830367    -0.80500
O226        O  0.11658708  0.41248183  0.25095330    -0.84700
O227        O  0.16630071  0.39666664  0.22641279    -0.79500
O228        O  0.07802998  0.33554885  0.31572672    -0.81300
O229        O  0.19955143  0.43313100  0.34024775    -0.84100
C230        C  0.16024551  0.36695405  0.22384334     0.96700
C231        C  0.09186635  0.38517925  0.24263738     1.04100
O232        O  0.14302102  0.38690272  0.29923423    -1.13000
O233        O  0.13402442  0.42482860  0.34933341    -0.75500
O234        O  0.15814493  0.45586164  0.30296406    -0.79000
O235        O  0.14809639  0.34665180  0.24843907    -0.79700
C236        C  0.14119625  0.44962447  0.33049293     0.95600
O237        O  0.20899866  0.43865603  0.28389943    -0.77600
O238        O  0.10626238  0.35615648  0.36378901    -0.82800
C239        C  0.15620683  0.33318094  0.33869892     0.98200
C240        C  0.07937930  0.33840797  0.34810355     1.04100
O241        O  0.13258915  0.32138605  0.31719319    -0.78500
C242        C  0.21922930  0.44448107  0.31493844     1.02400
Fe243      Fe  0.18066464  0.30740575  0.02316831     1.65800
Fe244      Fe  0.22761812  0.27463712  0.00869015     1.73200
Fe245      Fe  0.17157455  0.24383248  0.07152621     1.54400
O246        O  0.16566764  0.27814349  0.10045312    -0.82200
O247        O  0.19440915  0.22328743  0.49623985    -0.80500
O248        O  0.19147564  0.32625118  0.07236380    -0.84700
O249        O  0.13195673  0.27579489  0.03610566    -0.79500
O250        O  0.21496413  0.25877723  0.09710721    -0.81300
O251        O  0.21523625  0.28435776  0.46140296    -0.84100
C252        C  0.11524061  0.24445507  0.03691174     0.96700
C253        C  0.17825451  0.30950745  0.09948381     1.04100
O254        O  0.19352520  0.27538820  0.03470237    -1.13000
O255        O  0.25903097  0.32299292  0.01979029    -0.75500
O256        O  0.22716946  0.34303363  0.00596656    -0.79000
O257        O  0.12728214  0.22705690  0.04694884    -0.79700
C258        C  0.25517878  0.34562795  0.00707095     0.95600
O259        O  0.17159821  0.28899871  0.47202476    -0.77600
O260        O  0.24566267  0.26180240  0.05208252    -0.82800
C261        C  0.18539426  0.20297572  0.01768995     0.98200
C262        C  0.24002182  0.25956248  0.08447750     1.04100
O263        O  0.17619525  0.20624667  0.04760828    -0.78500
C264        C  0.19073541  0.28645590  0.45120592     1.02400
Fe265      Fe  0.26226750  0.83962786  0.26527968     1.65800
Fe266      Fe  0.24351009  0.85132152  0.34545332     1.73200
Fe267      Fe  0.23376168  0.89183255  0.27877175     1.54400
O268        O  0.27201934  0.91332808  0.24385852    -0.82200
O269        O  0.19473797  0.83615485  0.34528248    -0.80500
O270        O  0.29749090  0.88469739  0.24815532    -0.84700
O271        O  0.22957603  0.83457556  0.22529125    -0.79500
O272        O  0.26432729  0.92755259  0.31210060    -0.81300
O273        O  0.23151701  0.80258682  0.33870336    -0.84100
C274        C  0.20664669  0.84121184  0.22196392     0.96700
C275        C  0.29739310  0.91090840  0.24107122     1.04100
O276        O  0.24604144  0.86054473  0.29633229    -1.13000
O277        O  0.29224883  0.86655282  0.34743162    -0.75500
O278        O  0.29770693  0.84298252  0.30042949    -0.79000
O279        O  0.20240810  0.85889299  0.24338999    -0.79700
C280        C  0.30888182  0.85829971  0.32880153     0.95600
O281        O  0.22895339  0.79305329  0.28250307    -0.77600
O282        O  0.25499322  0.89862437  0.36036604    -0.82800
C283        C  0.18153585  0.85240220  0.33497409     0.98200
C284        C  0.26524943  0.92588374  0.34451326     1.04100
O285        O  0.19466722  0.87560196  0.31282201    -0.78500
C286        C  0.22378011  0.78279334  0.31348404     1.02400
Fe287      Fe  0.12957436  0.82428324  0.02135042     1.65800
Fe288      Fe  0.05052284  0.77652511  0.00402790     1.73200
Fe289      Fe  0.07451705  0.83298463  0.06696203     1.54400
O290        O  0.11328512  0.83695277  0.09838861    -0.82200
O291        O  0.03335210  0.81721020  0.49001692    -0.80500
O292        O  0.13524951  0.81139282  0.07031220    -0.84700
O293        O  0.14742709  0.87253108  0.03689740    -0.79500
O294        O  0.04446155  0.78974002  0.09162734    -0.81300
O295        O  0.07436215  0.79997510  0.45419796    -0.84100
C296        C  0.13402459  0.89002401  0.03737223     0.96700
C297        C  0.13159931  0.82406053  0.09757319     1.04100
O298        O  0.08456980  0.81081425  0.03120712    -1.13000
O299        O  0.06692060  0.74482501  0.01461927    -0.75500
O300        O  0.11891115  0.77851896  0.00221474    -0.79000
O301        O  0.10382692  0.87775121  0.04335227    -0.79700
C302        C  0.09369247  0.74988711  0.00248194     0.95600
O303        O  0.12256699  0.84139133  0.47112690    -0.77600
O304        O  0.01956569  0.75657285  0.04672305    -0.82800
C305        C  0.02145361  0.81941124  0.01067108     0.98200
C306        C  0.02199943  0.76311453  0.07887898     1.04100
O307        O  0.03339091  0.82950864  0.04075342    -0.78500
C308        C  0.10208111  0.82528889  0.44766991     1.02400
Fe309      Fe  0.50013807  0.09153293  0.10037849     1.65800
Fe310      Fe  0.49125054  0.06055070  0.18105331     1.73200
Fe311      Fe  0.44903420  0.01001935  0.11538789     1.54400
O312        O  0.42702806  0.02627977  0.08023744    -0.82200
O313        O  0.50556507  0.02621414  0.17997488    -0.80500
O314        O  0.45541697  0.08091317  0.08281798    -0.84700
O315        O  0.50573170  0.06355339  0.06107156    -0.79500
O316        O  0.41479153  0.00592310  0.14932537    -0.81300
O317        O  0.53960463  0.09653195  0.17300884    -0.84100
C318        C  0.49851195  0.03348681  0.05773215     0.96700
C319        C  0.42965627  0.05427965  0.07569585     1.04100
O320        O  0.48048444  0.05409479  0.13210256    -1.13000
O321        O  0.47725659  0.09487130  0.18456205    -0.75500
O322        O  0.49539342  0.12310080  0.13541150    -0.79000
O323        O  0.48100186  0.01143563  0.07958137    -0.79700
C324        C  0.48196985  0.11857594  0.16507840     0.95600
O325        O  0.54667938  0.10601702  0.11665575    -0.77600
O326        O  0.44428854  0.02540675  0.19705287    -0.82800
C327        C  0.48865381  0.99641612  0.17063373     0.98200
C328        C  0.41697049  0.00937529  0.18159578     1.04100
O329        O  0.46505619  0.98649727  0.14938586    -0.78500
C330        C  0.55804244  0.10893893  0.14687996     1.02400
Fe331      Fe  0.50906068  0.96921807  0.35849639     1.65800
Fe332      Fe  0.55590341  0.93661921  0.34216568     1.73200
Fe333      Fe  0.49880615  0.90421560  0.40438997     1.54400
O334        O  0.49335403  0.93861352  0.43450685    -0.82200
O335        O  0.52726157  0.88814776  0.33010381    -0.80500
O336        O  0.52095065  0.98729619  0.40781262    -0.84700
O337        O  0.46063612  0.93823802  0.37295171    -0.79500
O338        O  0.54146522  0.91807959  0.43042450    -0.81300
O339        O  0.53989069  0.94700824  0.29570960    -0.84100
C340        C  0.44298650  0.90699674  0.37254580     0.96700
C341        C  0.50761988  0.97020073  0.43479652     1.04100
O342        O  0.52169137  0.93679001  0.36858925    -1.13000
O343        O  0.58748040  0.98532230  0.35194619    -0.75500
O344        O  0.55491791  0.00486816  0.33979682    -0.79000
O345        O  0.45484412  0.88858953  0.37897888    -0.79700
C346        C  0.58302896  0.00771174  0.33987018     0.95600
O347        O  0.49656060  0.95127797  0.30972052    -0.77600
O348        O  0.57477251  0.92603253  0.38597598    -0.82800
C349        C  0.51522843  0.86445439  0.35131144     0.98200
C350        C  0.56829110  0.92274424  0.41821007     1.04100
O351        O  0.50390562  0.86674868  0.38034998    -0.78500
C352        C  0.51419450  0.94787099  0.28751937     1.02400
Fe353      Fe  0.37196065  0.20995866  0.18797903     1.65800
Fe354      Fe  0.40517925  0.29062369  0.17357024     1.73200
Fe355      Fe  0.43495023  0.26335943  0.23683332     1.54400
O356        O  0.39873860  0.22372484  0.26667220    -0.82200
O357        O  0.45326458  0.30970396  0.16278416    -0.80500
O358        O  0.35226076  0.20230524  0.23656241    -0.84700
O359        O  0.40161706  0.19095886  0.20287806    -0.79500
O360        O  0.42242822  0.29338561  0.26189518    -0.81300
O361        O  0.39490350  0.26494560  0.12670930    -0.84100
C362        C  0.43257474  0.20451312  0.20451701     0.96700
C363        C  0.36744086  0.20601634  0.26478704     1.04100
O364        O  0.40394096  0.25495933  0.19980949    -1.13000
O365        O  0.35669798  0.27390857  0.18166297    -0.75500
O366        O  0.33742459  0.22166843  0.16905784    -0.79000
O367        O  0.45037128  0.23440945  0.21314683    -0.79700
C368        C  0.33444952  0.24711076  0.16908384     0.95600
O369        O  0.39129997  0.21681878  0.13948203    -0.77600
O370        O  0.41541544  0.31998169  0.21757228    -0.82800
C371        C  0.47697109  0.31919944  0.18344823     0.98200
C372        C  0.41881029  0.31642406  0.24975270     1.04100
O373        O  0.47377293  0.30518836  0.21268044    -0.78500
C374        C  0.39345480  0.23813194  0.11772038     1.02400
Fe375      Fe  0.24609921  0.07769170  0.43266719     1.65800
Fe376      Fe  0.27621451  0.09130829  0.01576349     1.73200
Fe377      Fe  0.32701389  0.10727247  0.44821111     1.54400
O378        O  0.31111910  0.06889781  0.41331600    -0.82200
O379        O  0.30818209  0.14066111  0.01705194    -0.80500
O380        O  0.25671857  0.04367288  0.41325576    -0.84700
O381        O  0.27429693  0.11269777  0.39396299    -0.79500
O382        O  0.33284725  0.07704386  0.48145064    -0.81300
O383        O  0.23879954  0.10438910  0.50760209    -0.84100
C384        C  0.30439167  0.13505777  0.39069716     0.96700
C385        C  0.28315067  0.04399620  0.40734533     1.04100
O386        O  0.28291242  0.09319855  0.46469913    -1.13000
O387        O  0.24434029  0.04202207  0.01573464    -0.75500
O388        O  0.21355097  0.03960662  0.46602898    -0.79000
O389        O  0.32582032  0.13842742  0.41233763    -0.79700
C390        C  0.21757523  0.02759013  0.49402410     0.95600
O391        O  0.23185669  0.10980521  0.45196368    -0.77600
O392        O  0.31313275  0.08180073  0.02977560    -0.82800
C393        C  0.33739928  0.15620274  0.00628653     0.98200
C394        C  0.33017447  0.07255950  0.01330082     1.04100
O395        O  0.34850594  0.14679683  0.48256949    -0.78500
C396        C  0.22694506  0.11344512  0.48353620     1.02400
C397        C  0.30337161  0.14216790  0.32698238    -0.20800
C398        C  0.31646919  0.15636504  0.35913857    -0.07400
C399        C  0.34449712  0.18853878  0.35980483     0.13500
C400        C  0.35993518  0.20419756  0.32867899    -0.20900
C401        C  0.34818584  0.18902677  0.29657521    -0.07400
C402        C  0.31873922  0.15792755  0.29579109     0.13500
C403        C  0.30412786  0.14013780  0.26241772    -0.24200
H404        H  0.28203071  0.11763852  0.32624935     0.14800
H405        H  0.38173962  0.22839915  0.32948415     0.14800
C406        C  0.35834572  0.20683034  0.39317760    -0.24200
H407        H  0.28232009  0.11540926  0.26687340     0.05000
H408        H  0.32238394  0.13663493  0.24811447     0.08200
H409        H  0.29616024  0.15446396  0.24639947     0.08200
H410        H  0.36960120  0.19517238  0.40854147     0.08200
H411        H  0.33869487  0.20713573  0.40836506     0.08200
H412        H  0.37773712  0.23282470  0.38848451     0.05000
C413        C  0.38803889  0.18976338  0.03911555    -0.20800
C414        C  0.35975966  0.18709101  0.02436680    -0.07400
C415        C  0.34952536  0.20937001  0.03450738     0.13500
C416        C  0.36504992  0.23043784  0.06246450    -0.20900
C417        C  0.38966550  0.22883622  0.08097751    -0.07400
C418        C  0.40311906  0.21039809  0.06743995     0.13500
C419        C  0.43228616  0.21081510  0.08345377    -0.24200
H420        H  0.39646402  0.17329560  0.03091571     0.14800
H421        H  0.35520753  0.24516648  0.07237239     0.14800
C422        C  0.32586149  0.21496881  0.51196922    -0.24200
H423        H  0.45140352  0.21741968  0.06351892     0.05000
H424        H  0.42503898  0.18607400  0.09417403     0.08200
H425        H  0.44320977  0.22933750  0.10424356     0.08200
H426        H  0.30179097  0.19207411  0.51470578     0.08200
H427        H  0.33276403  0.21926853  0.48427786     0.08200
H428        H  0.32305262  0.23573902  0.52115495     0.05000
C429        C  0.48679233  0.17416924  0.16613692    -0.20800
C430        C  0.47059594  0.14116419  0.17739446    -0.07400
C431        C  0.44290345  0.12995213  0.19933318     0.13500
C432        C  0.43167769  0.15146698  0.20797760    -0.20900
C433        C  0.44771237  0.18427622  0.19658118    -0.07400
C434        C  0.47615944  0.19602986  0.17603170     0.13500
C435        C  0.49499949  0.23131334  0.16374180    -0.24200
H436        H  0.50806330  0.18300104  0.14969629     0.14800
H437        H  0.41007204  0.14257726  0.22393508     0.14800
C438        C  0.42412741  0.09511139  0.21317295    -0.24200
H439        H  0.51548250  0.23578967  0.14645223     0.05000
H440        H  0.50552001  0.24801608  0.18618471     0.08200
H441        H  0.47866299  0.23761687  0.14932631     0.08200
H442        H  0.43971691  0.09057106  0.23115882     0.08200
H443        H  0.41601065  0.07733394  0.19159839     0.08200
H444        H  0.40201583  0.09033602  0.22774255     0.05000
C445        C  0.36765155  0.08135938  0.06124127    -0.20800
C446        C  0.35099021  0.06279959  0.03222234    -0.07400
C447        C  0.35797258  0.03877720  0.01961605     0.13500
C448        C  0.38304099  0.03558396  0.03511701    -0.20900
C449        C  0.40163660  0.05630646  0.06217395    -0.07400
C450        C  0.39305873  0.07867803  0.07625672     0.13500
C451        C  0.41033698  0.09976775  0.10722427    -0.24200
H452        H  0.36209608  0.09954580  0.07100670     0.14800
H453        H  0.38905268  0.01780464  0.02514219     0.14800
C454        C  0.33910128  0.01636743  0.99005713    -0.24200
H455        H  0.39851670  0.11361166  0.11628110     0.05000
H456        H  0.43598969  0.11823757  0.10066920     0.08200
H457        H  0.40983746  0.08393548  0.12884976     0.08200
H458        H  0.34171429  0.03150893  0.46643660     0.08200
H459        H  0.31251848  0.00342221  0.99575937     0.08200
H460        H  0.34606247  0.99738091  0.98571789     0.05000
C461        C  0.50897885  0.99218997  0.02955546    -0.20800
C462        C  0.50853841  0.02190457  0.02667528    -0.07400
C463        C  0.50701183  0.03537183  0.49277313     0.13500
C464        C  0.50926398  0.01853339  0.46383474    -0.20900
C465        C  0.50747176  0.98772718  0.46692120    -0.07400
C466        C  0.50550408  0.97464024  0.50043377     0.13500
C467        C  0.51064832  0.94353894  0.00588958    -0.24200
H468        H  0.50714000  0.98149436  0.05490840     0.14800
H469        H  0.51116429  0.02900552  0.43837082     0.14800
C470        C  0.50700090  0.06710224  0.48709186    -0.24200
H471        H  0.51240780  0.93868635  0.03367620     0.05000
H472        H  0.52678214  0.94386260  0.49424369     0.08200
H473        H  0.48235953  0.92177330  0.49562223     0.08200
H474        H  0.52781266  0.08743078  0.50113362     0.08200
H475        H  0.48363218  0.06439641  0.49634341     0.08200
H476        H  0.50960346  0.07409665  0.45936414     0.05000
C477        C  0.53159263  0.96674115  0.22751667    -0.20800
C478        C  0.50596503  0.94850722  0.25084121    -0.07400
C479        C  0.47329391  0.93674939  0.24005157     0.13500
C480        C  0.46772159  0.94876244  0.20916732    -0.20900
C481        C  0.49396260  0.97232353  0.18949157    -0.07400
C482        C  0.52581394  0.97875687  0.19667616     0.13500
C483        C  0.55361759  0.99914059  0.17231683    -0.24200
H484        H  0.55650883  0.97440525  0.23484997     0.14800
H485        H  0.44308770  0.94297090  0.20281340     0.14800
C486        C  0.44425093  0.91295110  0.26156590    -0.24200
H487        H  0.57656661  0.00045541  0.18103856     0.05000
H488        H  0.55806802  0.02463081  0.17024397     0.08200
H489        H  0.54756837  0.98768412  0.14636448     0.08200
H490        H  0.44239966  0.92492955  0.28529562     0.08200
H491        H  0.44642393  0.89118850  0.26854183     0.08200
H492        H  0.42093837  0.90395238  0.24725062     0.05000
C493        C  0.20598318  0.97763527  0.52711808    -0.20800
C494        C  0.19405394  0.99294425  0.50484142    -0.07400
C495        C  0.16316236  0.97246355  0.99434295     0.13500
C496        C  0.14326002  0.93970012  0.00550513    -0.20900
C497        C  0.15434229  0.92550515  0.02999480    -0.07400
C498        C  0.18536656  0.94481826  0.04518475     0.13500
C499        C  0.19780602  0.93126156  0.07296017    -0.24200
H500        H  0.23132803  0.99100654  0.53522895     0.14800
H501        H  0.11931383  0.92459668  0.99404050     0.14800
C502        C  0.14989804  0.98568546  0.96717809    -0.24200
H503        H  0.22155335  0.95058494  0.08370992     0.05000
H504        H  0.20167746  0.91169779  0.06224896     0.08200
H505        H  0.17994608  0.92103374  0.09448620     0.08200
H506        H  0.15827585  0.99514403  0.44521716     0.08200
H507        H  0.15008492  0.00792552  0.97697388     0.08200
H508        H  0.12431224  0.96734792  0.96007429     0.05000
C509        C  0.35642306  0.89169737  0.36720831    -0.20800
C510        C  0.34270454  0.86807920  0.34073562    -0.07400
C511        C  0.36199856  0.85577683  0.32640849     0.13500
C512        C  0.39411532  0.86777833  0.33856774    -0.20900
C513        C  0.40786661  0.89227465  0.36395140    -0.07400
C514        C  0.38857405  0.90406276  0.37873108     0.13500
C515        C  0.40150208  0.92938352  0.40714034    -0.24200
H516        H  0.34222365  0.90142092  0.37857456     0.14800
H517        H  0.40909143  0.85893967  0.32719974     0.14800
C518        C  0.34939690  0.83024825  0.29830026    -0.24200
H519        H  0.38232315  0.93397252  0.41738331     0.05000
H520        H  0.42162988  0.95326616  0.39732398     0.08200
H521        H  0.41053457  0.92060621  0.42885409     0.08200
H522        H  0.36742982  0.82276538  0.29138948     0.08200
H523        H  0.34445107  0.84038970  0.27459785     0.08200
H524        H  0.32674538  0.80782343  0.30703194     0.05000
C525        C  0.38748207  0.97285556  0.23017788    -0.20800
C526        C  0.38666984  0.99069778  0.20153512    -0.07400
C527        C  0.35626401  0.98555159  0.18921952     0.13500
C528        C  0.32733947  0.96012811  0.20363350    -0.20900
C529        C  0.32822745  0.93965057  0.22948730    -0.07400
C530        C  0.35864572  0.94723574  0.24430802     0.13500
C531        C  0.36115465  0.92856248  0.27490379    -0.24200
H532        H  0.41082391  0.97728117  0.23993614     0.14800
H533        H  0.30395783  0.95520362  0.19351198     0.14800
C534        C  0.35399195  0.00652341  0.16089945    -0.24200
H535        H  0.38663983  0.93980763  0.28460275     0.05000
H536        H  0.35331005  0.90284133  0.26759009     0.08200
H537        H  0.34575947  0.92866720  0.29636335     0.08200
H538        H  0.36309903  0.00266062  0.13610590     0.08200
H539        H  0.36834311  0.03290199  0.16808169     0.08200
H540        H  0.32835970  0.00037419  0.15652751     0.05000
C541        C  0.30239389  0.01618094  0.36743610    -0.20800
C542        C  0.28112756  0.01370751  0.39383932    -0.07400
C543        C  0.25887579  0.98227805  0.40788472     0.13500
C544        C  0.25629466  0.95404236  0.39288503    -0.20900
C545        C  0.27518998  0.95632774  0.36416356    -0.07400
C546        C  0.29961093  0.98783026  0.35221270     0.13500
C547        C  0.32295622  0.99178031  0.32372832    -0.24200
H548        H  0.32041499  0.04034551  0.35781135     0.14800
H549        H  0.23798834  0.92993860  0.40240977     0.14800
C550        C  0.23795543  0.97817567  0.43889272    -0.24200
H551        H  0.34211791  0.01801851  0.31993289     0.05000
H552        H  0.30981592  0.98288514  0.29886520     0.08200
H553        H  0.33532674  0.97773157  0.33030920     0.08200
H554        H  0.21998172  0.98587946  0.43244032     0.08200
H555        H  0.25366378  0.99318309  0.46062482     0.08200
H556        H  0.22388720  0.95210347  0.44776052     0.05000
C557        C  0.13469655  0.81796127  0.16136648    -0.20800
C558        C  0.15014574  0.82474126  0.12907295    -0.07400
C559        C  0.18331695  0.83281730  0.12756206     0.13500
C560        C  0.20044007  0.83565302  0.15830742    -0.20900
C561        C  0.18549461  0.83067444  0.19066759    -0.07400
C562        C  0.15178427  0.82046949  0.19209509     0.13500
C563        C  0.13348611  0.81156417  0.22587000    -0.24200
H564        H  0.10913670  0.81087311  0.16257296     0.14800
H565        H  0.22620189  0.84353113  0.15713661     0.14800
C566        C  0.20152888  0.84028753  0.09383179    -0.24200
H567        H  0.10689911  0.80150149  0.22189009     0.05000
H568        H  0.14251325  0.83358470  0.24249989     0.08200
H569        H  0.13662155  0.79245220  0.23943672     0.08200
H570        H  0.20035192  0.86043393  0.08006540     0.08200
H571        H  0.19072846  0.81790495  0.07750814     0.08200
H572        H  0.22770839  0.84825644  0.09773939     0.05000
C573        C  0.15471890  0.87312189  0.37246273    -0.20800
C574        C  0.15212745  0.84675207  0.35326474    -0.07400
C575        C  0.12595402  0.81458571  0.35947163     0.13500
C576        C  0.10632753  0.80867068  0.38863875    -0.20900
C577        C  0.11299516  0.83430102  0.41164903    -0.07400
C578        C  0.13553339  0.86731053  0.40194544     0.13500
C579        C  0.14066619  0.89636722  0.42324946    -0.24200
H580        H  0.17436127  0.89796135  0.36687614     0.14800
H581        H  0.08817015  0.78351391  0.39530996     0.14800
C582        C  0.11963407  0.78649850  0.33604889    -0.24200
H583        H  0.11685532  0.89490623  0.42770508     0.05000
H584        H  0.15702196  0.92014321  0.40996812     0.08200
H585        H  0.15223470  0.89702327  0.44835812     0.08200
H586        H  0.14072596  0.78244930  0.33613896     0.08200
H587        H  0.11554424  0.79229935  0.30932468     0.08200
H588        H  0.09763263  0.76312966  0.34416492     0.05000
C589        C  0.19129437  0.15568453  0.03576407    -0.20800
C590        C  0.18647527  0.17283658  0.00882627    -0.07400
C591        C  0.18102927  0.16010503  0.47431679     0.13500
C592        C  0.19540854  0.14103352  0.46691079    -0.20900
C593        C  0.20756081  0.12941332  0.49322873    -0.07400
C594        C  0.20174125  0.13444076  0.52823883     0.13500
C595        C  0.20872707  0.11781643  0.06032979    -0.24200
H596        H  0.18831550  0.16110865  0.06219222     0.14800
H597        H  0.19796309  0.13612935  0.44015526     0.14800
C598        C  0.16831483  0.17120769  0.44454752    -0.24200
H599        H  0.20025660  0.12335126  0.08471505     0.05000
H600        H  0.23798319  0.13179859  0.55990122     0.08200
H601        H  0.19494968  0.09062920  0.05707163     0.08200
H602        H  0.18890166  0.18811377  0.42753808     0.08200
H603        H  0.15646794  0.17615772  0.94727280     0.08200
H604        H  0.15069243  0.14938939  0.42937923     0.05000
C605        C  0.30364065  0.27557698  0.15338154    -0.20800
C606        C  0.30647655  0.24714143  0.15087286    -0.07400
C607        C  0.28571534  0.22215048  0.12719864     0.13500
C608        C  0.26424057  0.22702931  0.10617351    -0.20900
C609        C  0.26256319  0.25587975  0.10807438    -0.07400
C610        C  0.28208581  0.28023151  0.13227077     0.13500
C611        C  0.28122142  0.31176770  0.13474380    -0.24200
H612        H  0.31919725  0.29495790  0.17115985     0.14800
H613        H  0.24878105  0.20827552  0.08773634     0.14800
C614        C  0.28627020  0.19056824  0.12287656    -0.24200
H615        H  0.29867754  0.32868538  0.15437061     0.05000
H616        H  0.25633112  0.30619217  0.14208925     0.08200
H617        H  0.28781020  0.32472630  0.10942467     0.08200
H618        H  0.28058094  0.17707895  0.14784990     0.08200
H619        H  0.31054593  0.19599201  0.11339424     0.08200
H620        H  0.26785840  0.17393380  0.10381023     0.05000
C621        C  0.19379077  0.37158668  0.17160440    -0.20800
C622        C  0.16499292  0.35374470  0.19094968    -0.07400
C623        C  0.14058469  0.32212409  0.17915751     0.13500
C624        C  0.14596431  0.30902496  0.14929971    -0.20900
C625        C  0.17497596  0.32618881  0.13044180    -0.07400
C626        C  0.19921514  0.35808893  0.14156413     0.13500
C627        C  0.23127927  0.37739671  0.12281410    -0.24200
H628        H  0.21243260  0.39567485  0.18054372     0.14800
H629        H  0.12711989  0.28493943  0.14050786     0.14800
C630        C  0.10820217  0.30188160  0.19737666    -0.24200
H631        H  0.24802575  0.40087914  0.13613844     0.05000
H632        H  0.22710264  0.38365356  0.09635190     0.08200
H633        H  0.24356294  0.36262635  0.12143221     0.08200
H634        H  0.09643750  0.31685508  0.20102560     0.08200
H635        H  0.11178137  0.29309166  0.22273626     0.08200
H636        H  0.09101427  0.27967512  0.18241852     0.05000
C637        C  0.15278614  0.27144879  0.40202561    -0.20800
C638        C  0.18510339  0.28908264  0.41417947    -0.07400
C639        C  0.20922295  0.31485693  0.39380476     0.13500
C640        C  0.19947070  0.32576294  0.36484787    -0.20900
C641        C  0.16626758  0.31170623  0.35623400    -0.07400
C642        C  0.14305041  0.28228678  0.37293156     0.13500
C643        C  0.10764742  0.26384823  0.36215417    -0.24200
H644        H  0.13451446  0.25103243  0.41725005     0.14800
H645        H  0.21738297  0.34778327  0.35130241     0.14800
C646        C  0.24454787  0.33351944  0.40467629    -0.24200
H647        H  0.09298935  0.24158500  0.37839906     0.05000
H648        H  0.10577038  0.25574081  0.33498559     0.08200
H649        H  0.09674452  0.27977374  0.36438623     0.08200
H650        H  0.25408476  0.31634440  0.40703781     0.08200
H651        H  0.24673461  0.34560357  0.42978801     0.08200
H652        H  0.26004841  0.35303949  0.38574441     0.05000
C653        C  0.02266907  0.19121190  0.03048716    -0.20800
C654        C  0.01430114  0.20411766  0.50343692    -0.07400
C655        C  0.03248029  0.18852465  0.49617586     0.13500
C656        C  0.06502916  0.20316465  0.50758553    -0.20900
C657        C  0.08117147  0.22831000  0.02433649    -0.07400
C658        C  0.05446615  0.20444043  0.04379869     0.13500
C659        C  0.05924334  0.19417134  0.07922883    -0.24200
H660        H  0.00201953  0.17347919  0.04573239     0.14800
H661        H  0.07905868  0.19136485  0.50185769     0.14800
C662        C  0.01776438  0.15626495  0.47713353    -0.24200
H663        H  0.03558165  0.17635222  0.09145608     0.05000
H664        H  0.07177700  0.21614638  0.09611702     0.08200
H665        H  0.07420599  0.18217980  0.07751605     0.08200
H666        H  0.01151915  0.15955004  0.45034621     0.08200
H667        H  0.99545374  0.13738127  0.49072019     0.08200
H668        H  0.03501182  0.14687107  0.47550904     0.05000
C669        C  0.01712937  0.27981424  0.41274987    -0.20800
C670        C  0.98835251  0.26796605  0.39328461    -0.07400
C671        C  0.98884093  0.28352080  0.36200513     0.13500
C672        C  0.01890259  0.30864237  0.34932161    -0.20900
C673        C  0.04838333  0.31852214  0.36723279    -0.07400
C674        C  0.04716488  0.30516294  0.40039922     0.13500
C675        C  0.07717791  0.31624768  0.42249081    -0.24200
H676        H  0.01620536  0.26828927  0.43739788     0.14800
H677        H  0.01956051  0.31951197  0.32436126     0.14800
C678        C  0.95823359  0.27242601  0.34104783    -0.24200
H679        H  0.07124398  0.30279293  0.44752694     0.05000
H680        H  0.08838244  0.34291321  0.42823138     0.08200
H681        H  0.09520811  0.31179684  0.40916443     0.08200
H682        H  0.94038456  0.27597196  0.35608574     0.08200
H683        H  0.94723797  0.24596881  0.33440161     0.08200
H684        H  0.96330603  0.28669987  0.31662918     0.05000
C685        C  0.64872629  0.13984179  0.13602142    -0.20800
C686        C  0.65969502  0.14789164  0.17031619    -0.07400
C687        C  0.63851464  0.14946273  0.19496281     0.13500
C688        C  0.60606456  0.13888264  0.18557198    -0.20900
C689        C  0.59399460  0.12649459  0.15246715    -0.07400
C690        C  0.61616462  0.12854036  0.12684277     0.13500
C691        C  0.60562244  0.11676600  0.09037274    -0.24200
H692        H  0.66510315  0.13978437  0.11662914     0.14800
H693        H  0.58947578  0.13859205  0.20491603     0.14800
C694        C  0.64889623  0.16031884  0.23167048    -0.24200
H695        H  0.62620948  0.11943655  0.07436586     0.05000
H696        H  0.59613000  0.13153666  0.07779842     0.08200
H697        H  0.58650891  0.09023769  0.09050192     0.08200
H698        H  0.67074576  0.18546723  0.23181767     0.08200
H699        H  0.65441065  0.14283252  0.24524226     0.08200
H700        H  0.62940444  0.16119348  0.24659329     0.05000
C701        C  0.66749127  0.06694182  0.30543066    -0.20800
C702        C  0.66003866  0.07052059  0.27111790    -0.07400
C703        C  0.62685082  0.05709913  0.26152071     0.13500
C704        C  0.60227925  0.03941995  0.28600218    -0.20900
C705        C  0.60979715  0.03440463  0.31974076    -0.07400
C706        C  0.64289267  0.04926953  0.32984463     0.13500
C707        C  0.65311581  0.04750464  0.36622629    -0.24200
H708        H  0.69278414  0.07792185  0.31335172     0.14800
H709        H  0.57688289  0.02775251  0.27809777     0.14800
C710        C  0.61690661  0.06136620  0.22576029    -0.24200
H711        H  0.66941080  0.07286139  0.37599597     0.05000
H712        H  0.66666546  0.03395864  0.36662564     0.08200
H713        H  0.63206166  0.03534546  0.38409568     0.08200
H714        H  0.62396117  0.04855744  0.20673156     0.08200
H715        H  0.62890073  0.08789703  0.21909387     0.08200
H716        H  0.59010755  0.05100122  0.22375487     0.05000
C717        C  0.82033462  0.14580195  0.35891749    -0.20800
C718        C  0.85257331  0.15200800  0.35623834    -0.07400
C719        C  0.86533152  0.15295991  0.32296620     0.13500
C720        C  0.84652295  0.15025648  0.29363806    -0.20900
C721        C  0.81551154  0.14713795  0.29649476    -0.07400
C722        C  0.80176634  0.14352638  0.32967699     0.13500
C723        C  0.76743767  0.13688506  0.33463672    -0.24200
H724        H  0.80999317  0.14412221  0.38425958     0.14800
H725        H  0.85682512  0.15222077  0.26822037     0.14800
C726        C  0.89924674  0.15851761  0.31786861    -0.24200
H727        H  0.75988021  0.13219495  0.36214505     0.05000
H728        H  0.75019599  0.11474631  0.31971792     0.08200
H729        H  0.76557317  0.15841603  0.32600121     0.08200
H730        H  0.90121829  0.13829553  0.33042581     0.08200
H731        H  0.91759768  0.18256538  0.32905901     0.08200
H732        H  0.90519623  0.15891655  0.29011624     0.05000
C733        C  0.77793604  0.12117097  0.06116804    -0.20800
C734        C  0.77828660  0.14674027  0.07999871    -0.07400
C735        C  0.79432409  0.17909754  0.06618656     0.13500
C736        C  0.81344494  0.18588787  0.03641983    -0.20900
C737        C  0.81761585  0.16130445  0.02120470    -0.07400
C738        C  0.79788915  0.12820260  0.03201376     0.13500
C739        C  0.79499216  0.09804054  0.51616279    -0.24200
H740        H  0.76501879  0.09623636  0.07140147     0.14800
H741        H  0.82826338  0.21119611  0.02763766     0.14800
C742        C  0.79265194  0.20678987  0.08367325    -0.24200
H743        H  0.77576439  0.07411522  0.52704031     0.05000
H744        H  0.81877266  0.09920700  0.51952950     0.08200
H745        H  0.78990892  0.09832012  0.48821880     0.08200
H746        H  0.80458786  0.21199542  0.10934741     0.08200
H747        H  0.76671194  0.19997438  0.08676823     0.08200
H748        H  0.80523691  0.22997665  0.06833469     0.05000
C749        C  0.95335580  0.72104900  0.14349182    -0.20800
C750        C  0.95224719  0.69087137  0.14832238    -0.07400
C751        C  0.97529342  0.68522297  0.13074965     0.13500
C752        C  0.99779525  0.70941656  0.10823287    -0.20900
C753        C  0.99785524  0.73878781  0.10270453    -0.07400
C754        C  0.97572153  0.74494179  0.12067809     0.13500
C755        C  0.97429931  0.77576208  0.11414079    -0.24200
H756        H  0.93561784  0.72535241  0.15639209     0.14800
H757        H  0.01524023  0.70526869  0.09442739     0.14800
C758        C  0.97562266  0.65335977  0.13384350    -0.24200
H759        H  0.95508311  0.77641236  0.12982666     0.05000
H760        H  0.96853097  0.77657654  0.08650868     0.08200
H761        H  0.99810460  0.79785402  0.12060447     0.08200
H762        H  0.95192242  0.63243865  0.12495519     0.08200
H763        H  0.98033633  0.64936132  0.16101399     0.08200
H764        H  0.99509098  0.65358154  0.11779293     0.05000
C765        C  0.93697593  0.81034474  0.00806468    -0.20800
C766        C  0.92061480  0.78970645  0.48241105    -0.07400
C767        C  0.94535039  0.79945477  0.45719375     0.13500
C768        C  0.97816915  0.81547054  0.46770424    -0.20900
C769        C  0.99125600  0.81865730  0.99763597    -0.07400
C770        C  0.96977614  0.82363850  0.01858021     0.13500
C771        C  0.98099287  0.84305993  0.05156159    -0.24200
H772        H  0.92009094  0.81267511  0.02494987     0.14800
H773        H  0.99678014  0.82119699  0.44837854     0.14800
C774        C  0.93763901  0.79135421  0.41948455    -0.24200
H775        H  0.96128473  0.84588338  0.06347128     0.05000
H776        H  0.00189617  0.86809785  0.04602051     0.08200
H777        H  0.98858270  0.83075575  0.07074572     0.08200
H778        H  0.92492029  0.80392855  0.40905771     0.08200
H779        H  0.92205044  0.76426896  0.41618533     0.08200
H780        H  0.96008330  0.79969298  0.40385317     0.05000
C781        C  0.84784152  0.63780084  0.32329831    -0.20800
C782        C  0.84845950  0.65153899  0.29082742    -0.07400
C783        C  0.84781236  0.68143357  0.28925938     0.13500
C784        C  0.84472254  0.69551810  0.31990630    -0.20900
C785        C  0.84180111  0.68043073  0.35203136    -0.07400
C786        C  0.84457492  0.65182016  0.35385444     0.13500
C787        C  0.84423027  0.63597201  0.38796234    -0.24200
H788        H  0.84918341  0.61547388  0.32473947     0.14800
H789        H  0.84242614  0.71730659  0.31855626     0.14800
C790        C  0.84826006  0.69769264  0.25542478    -0.24200
H791        H  0.84925203  0.61548199  0.38470274     0.05000
H792        H  0.81999378  0.62550803  0.40049401     0.08200
H793        H  0.86333865  0.65456187  0.40519528     0.08200
H794        H  0.82768623  0.68006113  0.23890249     0.08200
H795        H  0.87183150  0.70611556  0.24200589     0.08200
H796        H  0.84566410  0.71967224  0.25914764     0.05000
C797        C  0.86317836  0.65415283  0.02738318    -0.20800
C798        C  0.83016462  0.64194162  0.01917860    -0.07400
C799        C  0.80587763  0.61334931  0.03622399     0.13500
C800        C  0.81488659  0.60076707  0.06441654    -0.20900
C801        C  0.84749937  0.61588862  0.07559136    -0.07400
C802        C  0.87220576  0.64138161  0.05538277     0.13500
C803        C  0.90772709  0.65757278  0.06532473    -0.24200
H804        H  0.88178007  0.67577751  0.01385441     0.14800
H805        H  0.79604876  0.58084365  0.07969060     0.14800
C806        C  0.77022437  0.59775828  0.02685174    -0.24200
H807        H  0.92369136  0.67725822  0.04676485     0.05000
H808        H  0.91554851  0.63895022  0.06598557     0.08200
H809        H  0.91132519  0.66901143  0.09105118     0.08200
H810        H  0.75561042  0.58467976  0.50484284     0.08200
H811        H  0.76184240  0.61576210  0.02984308     0.08200
H812        H  0.75460499  0.57606953  0.04346088     0.05000
C813        C  0.20787243  0.73693393  0.35582771    -0.20800
C814        C  0.20798741  0.74674029  0.32132321    -0.07400
C815        C  0.19211788  0.72187979  0.29605896     0.13500
C816        C  0.17390550  0.68880388  0.30660522    -0.20900
C817        C  0.16988439  0.67956791  0.34170167    -0.07400
C818        C  0.18916159  0.70380937  0.36639612     0.13500
C819        C  0.18923639  0.69565011  0.40410343    -0.24200
H820        H  0.22134929  0.75550039  0.37517718     0.14800
H821        H  0.16049132  0.67020502  0.28724396     0.14800
C822        C  0.19253309  0.72953656  0.25811926    -0.24200
H823        H  0.20712675  0.71750980  0.41904902     0.05000
H824        H  0.19608339  0.67639221  0.40695546     0.08200
H825        H  0.16487245  0.68691478  0.41576193     0.08200
H826        H  0.21806206  0.74260220  0.24844595     0.08200
H827        H  0.18110587  0.74486389  0.25382036     0.08200
H828        H  0.17863710  0.70684271  0.24248274     0.05000
C829        C  0.06583394  0.66725344  0.46322524    -0.20800
C830        C  0.08300081  0.67618446  0.43178007    -0.07400
C831        C  0.10215040  0.70997022  0.42285917     0.13500
C832        C  0.10405406  0.73371981  0.44584298    -0.20900
C833        C  0.08632195  0.72477774  0.47682551    -0.07400
C834        C  0.06663183  0.69107483  0.48550286     0.13500
C835        C  0.04678736  0.68006590  0.51824631    -0.24200
H836        H  0.05113040  0.64138522  0.47007898     0.14800
H837        H  0.11840670  0.75957829  0.43877232     0.14800
C838        C  0.12087978  0.72148030  0.38944734    -0.24200
H839        H  0.03449129  0.65291598  0.52185925     0.05000
H840        H  0.02746088  0.68675198  0.51745276     0.08200
H841        H  0.08165079  0.69253112  0.04762157     0.08200
H842        H  0.13744539  0.71148048  0.38701013     0.08200
H843        H  0.13608277  0.74877290  0.38806429     0.08200
H844        H  0.10366836  0.71320127  0.36731699     0.05000
C845        C  0.15025823  0.50587384  0.34131395    -0.20800
C846        C  0.12912226  0.47162236  0.34159581    -0.07400
C847        C  0.09666048  0.45852863  0.35344486     0.13500
C848        C  0.08657254  0.47993557  0.36560499    -0.20900
C849        C  0.10767559  0.51432966  0.36596053    -0.07400
C850        C  0.14003266  0.52746443  0.35329804     0.13500
C851        C  0.16378094  0.56404448  0.35136481    -0.24200
H852        H  0.17501836  0.51574805  0.33200396     0.14800
H853        H  0.06166134  0.46951553  0.37463613     0.14800
C854        C  0.07193133  0.42204117  0.35210617    -0.24200
H855        H  0.18747742  0.56966571  0.33985923     0.05000
H856        H  0.16890598  0.57472569  0.37766590     0.08200
H857        H  0.15349717  0.57611686  0.33502685     0.08200
H858        H  0.07882689  0.40825437  0.37029138     0.08200
H859        H  0.07042993  0.41276711  0.32548421     0.08200
H860        H  0.04710100  0.41666883  0.35951114     0.05000
C861        C  0.95948431  0.55394414  0.28461672    -0.20800
C862        C  0.97215809  0.57663534  0.31183434    -0.07400
C863        C  0.95987383  0.59816253  0.31710734     0.13500
C864        C  0.93588312  0.59669904  0.29453400    -0.20900
C865        C  0.92469366  0.57513366  0.26624932    -0.07400
C866        C  0.93636138  0.55306748  0.26156220     0.13500
C867        C  0.92499209  0.52783117  0.23310971    -0.24200
H868        H  0.96851114  0.53721930  0.28034646     0.14800
H869        H  0.92659085  0.61333998  0.29826886     0.14800
C870        C  0.97157005  0.62245637  0.34640267    -0.24200
H871        H  0.94611995  0.53270219  0.21666449     0.05000
H872        H  0.90597712  0.52746889  0.21631196     0.08200
H873        H  0.91455509  0.50283031  0.24466442     0.08200
H874        H  0.99764085  0.64146433  0.34270477     0.08200
H875        H  0.96849583  0.60933139  0.37126563     0.08200
H876        H  0.95755555  0.63550407  0.34793498     0.05000
C877        C  0.82976848  0.29873827  0.15989169    -0.20800
C878        C  0.86353989  0.31452261  0.16586339    -0.07400
C879        C  0.87682199  0.29693414  0.18247875     0.13500
C880        C  0.85585804  0.26458725  0.19366694    -0.20900
C881        C  0.82195206  0.24902383  0.18879500    -0.07400
C882        C  0.80872190  0.26620527  0.17117665     0.13500
C883        C  0.77275293  0.25029983  0.16316865    -0.24200
H884        H  0.81974798  0.31211480  0.14678608     0.14800
H885        H  0.86614026  0.25134079  0.20654082     0.14800
C886        C  0.91316009  0.31149944  0.18771583    -0.24200
H887        H  0.76721453  0.26678750  0.14756039     0.05000
H888        H  0.75852879  0.24451526  0.18745382     0.08200
H889        H  0.76459085  0.22733910  0.14824638     0.08200
H890        H  0.92259434  0.33195590  0.20656395     0.08200
H891        H  0.92618308  0.32069172  0.16277929     0.08200
H892        H  0.91906607  0.29301525  0.19804080     0.05000
C893        C  0.96526148  0.31137797  0.01547603    -0.20800
C894        C  0.94440442  0.28157888  0.03277414    -0.07400
C895        C  0.92990640  0.28215234  0.06424135     0.13500
C896        C  0.93500318  0.31231458  0.07649007    -0.20900
C897        C  0.95390641  0.34179766  0.05796126    -0.07400
C898        C  0.97023874  0.34162655  0.02775487     0.13500
C899        C  0.99086248  0.37268995  0.00723467    -0.24200
H900        H  0.97607108  0.31067457  0.99111686     0.14800
H901        H  0.92271664  0.31268641  0.09987049     0.14800
C902        C  0.90696708  0.25088714  0.08350924    -0.24200
H903        H  0.00089697  0.36781319  0.98360679     0.05000
H904        H  0.01174487  0.39067206  0.02315369     0.08200
H905        H  0.97590358  0.38369265  0.99924944     0.08200
H906        H  0.92012637  0.23795892  0.09140016     0.08200
H907        H  0.88593574  0.23445755  0.06679481     0.08200
H908        H  0.89713424  0.25596462  0.10718115     0.05000
C909        C  0.85548561  0.44782268  0.17996225    -0.20800
C910        C  0.86513822  0.44749162  0.14561620    -0.07400
C911        C  0.85848399  0.46526327  0.12034081     0.13500
C912        C  0.84667659  0.48587720  0.13085346    -0.20900
C913        C  0.84200304  0.49007999  0.16591685    -0.07400
C914        C  0.84400540  0.46874630  0.19047565     0.13500
C915        C  0.83569316  0.46873791  0.22801788    -0.24200
H916        H  0.85871296  0.43300236  0.19936813     0.14800
H917        H  0.84369899  0.50101615  0.11161953     0.14800
C918        C  0.86520174  0.46432437  0.08248729    -0.24200
H919        H  0.83769528  0.44962521  0.24303800     0.05000
H920        H  0.81014721  0.46341557  0.23030971     0.08200
H921        H  0.85254317  0.49286208  0.24001423     0.08200
H922        H  0.85141611  0.43851837  0.07311804     0.08200
H923        H  0.89178471  0.47484794  0.07817232     0.08200
H924        H  0.85749318  0.47900899  0.06666051     0.05000
C925        C  0.01699150  0.36867129  0.18931774    -0.20800
C926        C  0.01424471  0.39607255  0.19835278    -0.07400
C927        C  0.03503099  0.41779433  0.22402999     0.13500
C928        C  0.05907728  0.41252925  0.23862833    -0.20900
C929        C  0.06327729  0.38625912  0.22822715    -0.07400
C930        C  0.04103016  0.36325657  0.20413214     0.13500
C931        C  0.04331766  0.33399868  0.19250666    -0.24200
H932        H  0.00089347  0.35203068  0.16965206     0.14800
H933        H  0.07537398  0.42973952  0.25779457     0.14800
C934        C  0.03352714  0.44780338  0.23463894    -0.24200
H935        H  0.02440731  0.31921656  0.17293771     0.05000
H936        H  0.03963224  0.31751961  0.21479274     0.08200
H937        H  0.06760054  0.34263440  0.18067201     0.08200
H938        H  0.00926394  0.44016219  0.24597203     0.08200
H939        H  0.03784774  0.46389454  0.21184858     0.08200
H940        H  0.05232233  0.46261334  0.25430018     0.05000
C941        C  0.96799308  0.46501977  0.98951347    -0.20800
C942        C  0.97740912  0.48020636  0.02191090    -0.07400
C943        C  0.00066268  0.51446264  0.02338974     0.13500
C944        C  0.01542739  0.53418126  0.49416444    -0.20900
C945        C  0.00652213  0.51956892  0.46152089    -0.07400
C946        C  0.97953697  0.48695267  0.45877248     0.13500
C947        C  0.96773999  0.47002425  0.42443259    -0.24200
H948        H  0.95030030  0.43886932  0.98822082     0.14800
H949        H  0.03518159  0.55952838  0.49618922     0.14800
C950        C  0.00971406  0.53317001  0.05693660    -0.24200
H951        H  0.94755727  0.44410525  0.42743430     0.05000
H952        H  0.98806149  0.46965653  0.41070887     0.08200
H953        H  0.95827591  0.48310616  0.40851755     0.08200
H954        H  0.02338982  0.52521425  0.07384772     0.08200
H955        H  0.98725998  0.52903863  0.07028223     0.08200
H956        H  0.02562793  0.56013226  0.05265758     0.05000
C957        C  0.01138196  0.51755600  0.25827792    -0.20800
C958        C  0.04235642  0.54513261  0.25421274    -0.07400
C959        C  0.05750362  0.55301161  0.22161336     0.13500
C960        C  0.04096860  0.53208073  0.19352396    -0.20900
C961        C  0.00936165  0.50453217  0.19772656    -0.07400
C962        C  0.99426820  0.49759941  0.23075154     0.13500
C963        C  0.96056467  0.46858223  0.23837124    -0.24200
H964        H  0.00034370  0.51146769  0.28370961     0.14800
H965        H  0.05259413  0.53716237  0.16844906     0.14800
C966        C  0.09108704  0.58252029  0.21695170    -0.24200
H967        H  0.95412202  0.46674813  0.26614258     0.05000
H968        H  0.95929792  0.44516526  0.23141556     0.08200
H969        H  0.94169318  0.47121548  0.22408732     0.08200
H970        H  0.10868922  0.58013471  0.23395702     0.08200
H971        H  0.09080534  0.60527343  0.22380766     0.08200
H972        H  0.09959791  0.58493857  0.18986369     0.05000
C973        C  0.86189992  0.02639353  0.52489108    -0.20800
C974        C  0.83769462  0.00699689  0.99682571    -0.07400
C975        C  0.84811593  0.01802454  0.46420470     0.13500
C976        C  0.86819416  0.05189403  0.45836856    -0.20900
C977        C  0.88354042  0.07382558  0.48584127    -0.07400
C978        C  0.88275934  0.06038217  0.51909627     0.13500
C979        C  0.90281131  0.08135161  0.54894668    -0.24200
H980        H  0.85856978  0.01670041  0.55094066     0.14800
H981        H  0.87032336  0.06121064  0.43227192     0.14800
C982        C  0.82473631  0.99877718  0.93208340    -0.24200
H983        H  0.90134445  0.06603592  0.57158249     0.05000
H984        H  0.89370475  0.09774204  0.55745389     0.08200
H985        H  0.92889946  0.09620663  0.54126044     0.08200
H986        H  0.80781642  0.00643338  0.92136040     0.08200
H987        H  0.81889625  0.96957828  0.44104354     0.08200
H988        H  0.84262351  0.00188808  0.91187146     0.05000
C989        C  0.73222531  0.98833152  0.13357781    -0.20800
C990        C  0.75474964  0.99855225  0.10643076    -0.07400
C991        C  0.78090528  0.03127250  0.10495084     0.13500
C992        C  0.78234403  0.05390323  0.12899886    -0.20900
C993        C  0.75797283  0.04479150  0.15430433    -0.07400
C994        C  0.73326246  0.01115536  0.15752244     0.13500
C995        C  0.70788205  0.99903234  0.18567906    -0.24200
H996        H  0.71290919  0.96272065  0.13506360     0.14800
H997        H  0.80173187  0.07937866  0.12651186     0.14800
C998        C  0.80752465  0.04230321  0.07822595    -0.24200
H999        H  0.69267750  0.97169127  0.18596932     0.05000
H1000       H  0.69109088  0.00871464  0.18170297     0.08200
H1001       H  0.72004904  0.00693866  0.21119742     0.08200
H1002       H  0.79717991  0.03902339  0.05187840     0.08200
H1003       H  0.81957794  0.02742890  0.08102009     0.08200
H1004       H  0.82649931  0.06869709  0.08116128     0.05000
C1005       C  0.79647812  0.84462886  0.02923046    -0.20800
C1006       C  0.77377284  0.84559698  0.00654009    -0.07400
C1007       C  0.76522949  0.82664709  0.47424798     0.13500
C1008       C  0.77910297  0.80733049  0.46632394    -0.20900
C1009       C  0.79879978  0.80259036  0.48996176    -0.07400
C1010       C  0.81157983  0.82634435  0.02149706     0.13500
C1011       C  0.83498963  0.82518778  0.04710500    -0.24200
H1012       H  0.80160902  0.85737429  0.05369329     0.14800
H1013       H  0.77376222  0.79517453  0.44148347     0.14800
C1014       C  0.74444086  0.82954997  0.44657111    -0.24200
H1015       H  0.83870502  0.84096896  0.06985098     0.05000
H1016       H  0.85909965  0.83410833  0.03464942     0.08200
H1017       H  0.82537943  0.79961575  0.05662183     0.08200
H1018       H  0.75885178  0.83888181  0.42240467     0.08200
H1019       H  0.73296906  0.84346508  0.95463115     0.08200
H1020       H  0.72283353  0.80489093  0.44145541     0.05000
C1021       C  0.64861960  0.94757730  0.46230218    -0.20800
C1022       C  0.63976030  0.92039566  0.48411170    -0.07400
C1023       C  0.60662074  0.89540025  0.48665028     0.13500
C1024       C  0.58332267  0.89771545  0.46618066    -0.20900
C1025       C  0.59278651  0.92359666  0.44229032    -0.07400
C1026       C  0.62567024  0.94927575  0.44102300     0.13500
C1027       C  0.63667213  0.97867728  0.41754342    -0.24200
H1028       H  0.67410135  0.96674886  0.46034047     0.14800
H1029       H  0.55785781  0.87848587  0.46770253     0.14800
C1030       C  0.59581138  0.86650296  0.51082814    -0.24200
H1031       H  0.66287706  0.99730850  0.42142768     0.05000
H1032       H  0.62210548  0.99062064  0.42297355     0.08200
H1033       H  0.63351858  0.97093945  0.39015841     0.08200
H1034       H  0.59798039  0.86463319  0.03096289     0.08200
H1035       H  0.60663379  0.85142599  0.50297700     0.08200
H1036       H  0.56882029  0.85020911  0.51074750     0.12200
C1037       C  0.54185935  0.80082764  0.35560515    -0.20800
C1038       C  0.54660386  0.79730363  0.32030698    -0.07400
C1039       C  0.53406350  0.81061677  0.29568844     0.13500
C1040       C  0.52010402  0.82916406  0.30706918    -0.20900
C1041       C  0.51854513  0.83544673  0.34226718    -0.07400
C1042       C  0.52832665  0.81975989  0.36686768     0.13500
C1043       C  0.52690899  0.82469329  0.40505160    -0.24200
H1044       H  0.55023415  0.78997193  0.37487951     0.14800
H1045       H  0.51229509  0.84081434  0.28808549     0.14800
C1046       C  0.53632282  0.80688757  0.25734613    -0.24200
H1047       H  0.53565822  0.81069736  0.42053464     0.05000
H1048       H  0.50133223  0.81613188  0.41283843     0.08200
H1049       H  0.54270449  0.85114909  0.41132941     0.08200
H1050       H  0.52317221  0.78034677  0.25047816     0.08200
H1051       H  0.56233060  0.81871860  0.24940399     0.08200
H1052       H  0.52506871  0.81879461  0.24228535     0.05000
C1053       C  0.72689717  0.70861744  0.34594084    -0.20800
C1054       C  0.73042071  0.70970387  0.38170191    -0.07400
C1055       C  0.71172372  0.71861375  0.40240183     0.13500
C1056       C  0.69162751  0.72880806  0.38656280    -0.20900
C1057       C  0.68977323  0.73020676  0.35045336    -0.07400
C1058       C  0.70641056  0.71818091  0.32989543     0.13500
C1059       C  0.70306856  0.71517823  0.29111215    -0.24200
H1060       H  0.74115840  0.70131212  0.33044999     0.14800
H1061       H  0.67845995  0.73707027  0.40251966     0.14800
C1062       C  0.71397558  0.71855081  0.44120059    -0.24200
H1063       H  0.71515895  0.70219216  0.28035016     0.05000
H1064       H  0.71483252  0.73993657  0.27883893     0.08200
H1065       H  0.67684722  0.70078763  0.28385473     0.08200
H1066       H  0.73954042  0.73523741  0.44958383     0.08200
H1067       H  0.70601977  0.69323446  0.45046187     0.08200
H1068       H  0.69824765  0.72681100  0.45353598     0.05000
C1069       C  0.63703572  0.79969552  0.14969714    -0.20800
C1070       C  0.64567002  0.81849032  0.18005597    -0.07400
C1071       C  0.66830183  0.85283659  0.17783882     0.13500
C1072       C  0.68348660  0.86679172  0.14612150    -0.20900
C1073       C  0.67645838  0.84755746  0.11630814    -0.07400
C1074       C  0.65213058  0.81378022  0.11787802     0.13500
C1075       C  0.64346263  0.79205966  0.08659776    -0.24200
H1076       H  0.62000077  0.77338378  0.15128959     0.14800
H1077       H  0.70135725  0.89291274  0.14465593     0.14800
C1078       C  0.67642803  0.87503146  0.20874035    -0.24200
H1079       H  0.62517156  0.76599261  0.09275417     0.05000
H1080       H  0.66568703  0.79280879  0.07641847     0.08200
H1081       H  0.63285058  0.80064781  0.06633308     0.08200
H1082       H  0.68967449  0.86915376  0.22853282     0.08200
H1083       H  0.65358138  0.87202758  0.22001363     0.08200
H1084       H  0.69232132  0.90141442  0.20159805     0.05000
C1085       C  0.72639812  0.87407501  0.35621090    -0.20800
C1086       C  0.69464142  0.86398214  0.34473471    -0.07400
C1087       C  0.67846905  0.88017570  0.35732128     0.13500
C1088       C  0.69154618  0.90113632  0.38572359    -0.20900
C1089       C  0.72035604  0.90617931  0.40134128    -0.07400
C1090       C  0.73961758  0.89544768  0.38444665     0.13500
C1091       C  0.77348951  0.90570678  0.39707038    -0.24200
H1092       H  0.73935667  0.86259049  0.34570544     0.14800
H1093       H  0.67716963  0.91021450  0.39812614     0.14800
C1094       C  0.64606858  0.87356895  0.34311415    -0.24200
H1095       H  0.78479642  0.89420566  0.38171939     0.05000
H1096       H  0.77310084  0.89874118  0.42450985     0.08200
H1097       H  0.78907120  0.93285094  0.39449437     0.08200
H1098       H  0.62688992  0.86167638  0.36323442     0.08200
H1099       H  0.63841923  0.85745000  0.32007227     0.08200
H1100       H  0.64798545  0.89724225  0.33523960     0.05000
C1101       C  0.27705186  0.47080329  0.29461468    -0.20800
C1102       C  0.25521511  0.46388012  0.32211694    -0.07400
C1103       C  0.26845850  0.47395767  0.35588057     0.13500
C1104       C  0.30190483  0.48595522  0.36151862    -0.20900
C1105       C  0.32261991  0.48813753  0.33465320    -0.07400
C1106       C  0.31049123  0.48285611  0.30035420     0.13500
C1107       C  0.33238997  0.48939627  0.26956577    -0.24200
H1108       H  0.26772651  0.46500931  0.26848336     0.14800
H1109       H  0.31124072  0.49089880  0.38769776     0.14800
C1110       C  0.24787560  0.47150283  0.38661498    -0.24200
H1111       H  0.31957293  0.48783783  0.24498132     0.05000
H1112       H  0.34036917  0.47097867  0.26809394     0.08200
H1113       H  0.35404986  0.51460058  0.27126551     0.08200
H1114       H  0.23075654  0.44528259  0.39329515     0.08200
H1115       H  0.23416668  0.48438650  0.38091412     0.08200
H1116       H  0.26305490  0.48317541  0.40987834     0.05000
C1117       C  0.30451575  0.35853701  0.46840757    -0.20800
C1118       C  0.28694942  0.36859560  0.48922870    -0.07400
C1119       C  0.29423073  0.40166545  0.48753306     0.13500
C1120       C  0.31794395  0.42340370  0.46395859    -0.20900
C1121       C  0.33350550  0.41244476  0.44133215    -0.07400
C1122       C  0.32719052  0.37980639  0.44403299     0.13500
C1123       C  0.34421294  0.36722929  0.42126417    -0.24200
H1124       H  0.29883236  0.33311484  0.46946789     0.14800
H1125       H  0.32344408  0.44873774  0.46220271     0.14800
C1126       C  0.26585669  0.41492911  0.00026283    -0.24200
H1127       H  0.33733551  0.34150150  0.42796472     0.05000
H1128       H  0.37110259  0.38299137  0.42423361     0.08200
H1129       H  0.33738416  0.36745277  0.39389401     0.08200
H1130       H  0.26793474  0.41266403  0.02857189     0.08200
H1131       H  0.23992158  0.39983379  0.99227087     0.08200
H1132       H  0.27380326  0.44106757  0.99427264     0.05000
C1133       C  0.50260828  0.64447993  0.32197309    -0.20800
C1134       C  0.53468227  0.66082185  0.33516204    -0.07400
C1135       C  0.54392384  0.64345813  0.35859435     0.13500
C1136       C  0.52127089  0.61067328  0.36736496    -0.20900
C1137       C  0.48941465  0.59449304  0.35417943    -0.07400
C1138       C  0.47983835  0.61168330  0.33132045     0.13500
C1139       C  0.44614474  0.59522580  0.31560751    -0.24200
H1140       H  0.49526132  0.65739652  0.30413672     0.14800
H1141       H  0.52852417  0.59739894  0.38484666     0.14800
C1142       C  0.57768468  0.65851560  0.37423848    -0.24200
H1143       H  0.44329931  0.61177593  0.29713751     0.05000
H1144       H  0.42751637  0.58832227  0.33613962     0.08200
H1145       H  0.44148461  0.57279240  0.30143157     0.08200
H1146       H  0.58233614  0.67938896  0.39119170     0.08200
H1147       H  0.59643356  0.66711383  0.35363645     0.08200
H1148       H  0.58057132  0.64056349  0.39043844     0.05000
C1149       C  0.44673359  0.35857444  0.29500189    -0.20800
C1150       C  0.41897226  0.34020104  0.27433213    -0.07400
C1151       C  0.39156576  0.34396709  0.27831746     0.13500
C1152       C  0.39289662  0.36681610  0.30221314    -0.20900
C1153       C  0.42149905  0.38707315  0.32121645    -0.07400
C1154       C  0.44865734  0.38254584  0.31792470     0.13500
C1155       C  0.47949300  0.40258932  0.33852727    -0.24200
H1156       H  0.46736823  0.35484530  0.29239698     0.14800
H1157       H  0.37208806  0.37034853  0.30433971     0.14800
C1158       C  0.36091109  0.32391843  0.25741792    -0.24200
H1159       H  0.49722629  0.39408534  0.33443961     0.05000
H1160       H  0.47356460  0.40029042  0.36646225     0.08200
H1161       H  0.49168558  0.42888718  0.33063209     0.08200
H1162       H  0.35135504  0.29722054  0.26191677     0.08200
H1163       H  0.36628722  0.32959387  0.22955786     0.08200
H1164       H  0.34145935  0.32936907  0.26448617     0.05000
C1165       C  0.69565964  0.52165791  0.15786725    -0.20800
C1166       C  0.68242624  0.54173059  0.16540284    -0.07400
C1167       C  0.70214099  0.57204251  0.18275935     0.13500
C1168       C  0.73373872  0.58062559  0.19313826    -0.20900
C1169       C  0.74673204  0.56022203  0.18657164    -0.07400
C1170       C  0.72756322  0.53048565  0.16818782     0.13500
C1171       C  0.74079907  0.50849903  0.15828180    -0.24200
H1172       H  0.68082147  0.49874110  0.14418604     0.14800
H1173       H  0.74851704  0.60368869  0.20661942     0.14800
C1174       C  0.69078414  0.59629421  0.18962833    -0.24200
H1175       H  0.72307149  0.48730716  0.14243003     0.05000
H1176       H  0.74602537  0.49834629  0.18178718     0.08200
H1177       H  0.76351162  0.52274883  0.14291632     0.08200
H1178       H  0.67078973  0.58606291  0.20893460     0.08200
H1179       H  0.68227319  0.60207325  0.16528538     0.08200
H1180       H  0.71069613  0.61991126  0.20017276     0.05000
C1181       C  0.68767515  0.64730944  0.01143393    -0.20800
C1182       C  0.71727451  0.65797242  0.02938513    -0.07400
C1183       C  0.71621848  0.64671925  0.06355909     0.13500
C1184       C  0.68612783  0.62250840  0.07711061    -0.20900
C1185       C  0.65717625  0.60991552  0.05781293    -0.07400
C1186       C  0.65758685  0.62355942  0.02534571     0.13500
C1187       C  0.62680530  0.61155419  0.00442104    -0.24200
H1188       H  0.68819771  0.65601528  0.98541040     0.14800
H1189       H  0.68531617  0.61223553  0.10245860     0.14800
C1190       C  0.74654128  0.65849663  0.08527985    -0.24200
H1191       H  0.63177299  0.62428493  0.97902517     0.05000
H1192       H  0.60936474  0.61638813  0.01857368     0.08200
H1193       H  0.61535092  0.58467192  0.99970809     0.08200
H1194       H  0.75844179  0.68553653  0.08908734     0.08200
H1195       H  0.76389661  0.65262568  0.07261547     0.08200
H1196       H  0.74080895  0.64663147  0.11118897     0.05000
C1197       C  0.51106367  0.35871101  0.13794610    -0.20800
C1198       C  0.50759748  0.34984339  0.17312036    -0.07400
C1199       C  0.52824051  0.37391341  0.19723727     0.13500
C1200       C  0.54805887  0.40677807  0.18616983    -0.20900
C1201       C  0.54745901  0.41656020  0.15176613    -0.07400
C1202       C  0.53000360  0.39161734  0.12695159     0.13500
C1203       C  0.52928876  0.39910551  0.08914503    -0.24200
H1204       H  0.49632257  0.34008456  0.11907683     0.14800
H1205       H  0.56263909  0.42527727  0.20518414     0.14800
C1206       C  0.52818556  0.36586487  0.23493851    -0.24200
H1207       H  0.51447855  0.37636594  0.07383430     0.05000
H1208       H  0.55446297  0.41166644  0.07849824     0.08200
H1209       H  0.51820335  0.41483398  0.08560242     0.08200
H1210       H  0.53413636  0.34596596  0.23791973     0.08200
H1211       H  0.50389592  0.35790985  0.24635216     0.08200
H1212       H  0.54656771  0.38753749  0.24976776     0.05000
C1213       C  0.64012888  0.68633108  0.19172328    -0.20800
C1214       C  0.62476662  0.68512609  0.22285402    -0.07400
C1215       C  0.60815744  0.65507047  0.24148669     0.13500
C1216       C  0.60397127  0.62616071  0.22657911    -0.20900
C1217       C  0.61567250  0.62653157  0.19337794    -0.07400
C1218       C  0.63577703  0.65731313  0.17657811     0.13500
C1219       C  0.65264153  0.65992936  0.14275302    -0.24200
H1220       H  0.65400839  0.70972299  0.17831537     0.14800
H1221       H  0.58942733  0.60285169  0.23993901     0.14800
C1222       C  0.59451247  0.65326754  0.27701608    -0.24200
H1223       H  0.66995332  0.68602512  0.13562390     0.05000
H1224       H  0.63464740  0.64914911  0.12146254     0.08200
H1225       H  0.66681041  0.64707555  0.14486420     0.08200
H1226       H  0.57426457  0.65854415  0.27563898     0.08200
H1227       H  0.61413014  0.67142040  0.29410171     0.08200
H1228       H  0.58460041  0.62842678  0.28884239     0.05000
C1229       C  0.51188631  0.47833782  0.50002150    -0.20800
C1230       C  0.52157780  0.50608519  0.02258136    -0.07400
C1231       C  0.51099760  0.52864192  0.01367280     0.13500
C1232       C  0.49304574  0.52413119  0.48260461    -0.20900
C1233       C  0.48428944  0.49748062  0.46048581    -0.07400
C1234       C  0.49419860  0.47433160  0.46923654     0.13500
C1235       C  0.48573635  0.44491501  0.44691642    -0.24200
H1236       H  0.52198395  0.46260810  0.00679226     0.14800
H1237       H  0.48637149  0.54236757  0.47579090     0.14800
C1238       C  0.52058372  0.55935631  0.03441733    -0.24200
H1239       H  0.49376666  0.42860136  0.45878724     0.05000
H1240       H  0.49814255  0.45316863  0.42155792     0.08200
H1241       H  0.45886269  0.43008456  0.44314916     0.08200
H1242       H  0.54755117  0.57391871  0.03736384     0.08200
H1243       H  0.50870516  0.55272850  0.06012273     0.08200
H1244       H  0.51285059  0.57556369  0.02169370     0.05000
C1245       C  0.45917696  0.52019316  0.23391489    -0.20800
C1246       C  0.44252920  0.48730683  0.24542802    -0.07400
C1247       C  0.44465656  0.46310101  0.22606195     0.13500
C1248       C  0.46703743  0.47314912  0.19875367    -0.20900
C1249       C  0.48742051  0.50670630  0.19082699    -0.07400
C1250       C  0.48203988  0.53036257  0.20709794     0.13500
C1251       C  0.50270283  0.56667722  0.19907811    -0.24200
H1252       H  0.45712152  0.53860690  0.24863649     0.14800
H1253       H  0.47092930  0.45505637  0.18576026     0.14800
C1254       C  0.42643914  0.42729938  0.23646383    -0.24200
H1255       H  0.49565232  0.58164666  0.21502376     0.05000
H1256       H  0.49962372  0.57122765  0.17156232     0.08200
H1257       H  0.52883592  0.57528435  0.20434064     0.08200
H1258       H  0.43470562  0.42462078  0.26238552     0.08200
H1259       H  0.39976290  0.41797444  0.23685108     0.08200
H1260       H  0.43094342  0.41177864  0.21838673     0.05000
Fe1261     Fe  0.59432867  0.50607233  0.59655220     1.65800
Fe1262     Fe  0.57911399  0.51912311  0.67742914     1.73200
Fe1263     Fe  0.56321255  0.55528468  0.61181916     1.54400
O1264       O  0.59829271  0.57526182  0.57307274    -0.82200
O1265       O  0.53028737  0.50210820  0.68064714    -0.80500
O1266       O  0.62859372  0.55159513  0.57965241    -0.84700
O1267       O  0.56182615  0.50264100  0.55642987    -0.79500
O1268       O  0.59560840  0.59339956  0.64163323    -0.81300
O1269       O  0.56799101  0.47067133  0.67069703    -0.84100
C1270       C  0.53802650  0.50818822  0.55509996     0.96700
C1271       C  0.62492526  0.57523067  0.56980864     1.04100
O1272       O  0.57863914  0.52661725  0.62858865    -1.13000
O1273       O  0.62761942  0.53577319  0.67622626    -0.75500
O1274       O  0.63063882  0.50913165  0.63064767    -0.79000
O1275       O  0.53023005  0.51884466  0.58094602    -0.79700
C1276       C  0.64335199  0.52674834  0.65749855     0.95600
O1277       O  0.56102834  0.45951784  0.61461795    -0.77600
O1278       O  0.59084247  0.56700622  0.69085832    -0.82800
C1279       C  0.51535096  0.51689844  0.67152543     0.98200
C1280       C  0.60000687  0.59353843  0.67375380     1.04100
O1281       O  0.52660880  0.53984269  0.64901118    -0.78500
C1282       C  0.55770348  0.45007417  0.64596003     1.02400
Fe1283     Fe  0.45877556  0.48926991  0.85430810     1.65800
Fe1284     Fe  0.37839963  0.44726575  0.83839040     1.73200
Fe1285     Fe  0.40892363  0.50596486  0.89908544     1.54400
O1286       O  0.44805838  0.50968867  0.92924013    -0.82200
O1287       O  0.36431284  0.48009638  0.82469316    -0.80500
O1288       O  0.46487397  0.47841515  0.90422685    -0.84700
O1289       O  0.48047079  0.53951390  0.86566110    -0.79500
O1290       O  0.37791672  0.46445467  0.92618250    -0.81300
O1291       O  0.40447415  0.45936103  0.79179818    -0.84100
C1292       C  0.46858992  0.55849962  0.86404248     0.96700
C1293       C  0.46399581  0.49427208  0.93016940     1.04100
O1294       O  0.41507181  0.48021492  0.86432088    -1.13000
O1295       O  0.39025224  0.41217680  0.84961533    -0.75500
O1296       O  0.44334404  0.44080228  0.83883534    -0.79000
O1297       O  0.43913732  0.54850125  0.87208970    -0.79700
C1298       C  0.41616509  0.41371894  0.83911058     0.95600
O1299       O  0.45421564  0.50098784  0.80485246    -0.77600
O1300       O  0.34864754  0.43164602  0.88242520    -0.82800
C1301       C  0.35463553  0.49398004  0.84526348     0.98200
C1302       C  0.35328077  0.43867598  0.91452336     1.04100
O1303       O  0.36790032  0.50374265  0.87484105    -0.78500
C1304       C  0.43251366  0.48315192  0.78307507     1.02400
Fe1305     Fe  0.58188485  0.74262552  0.75882187     1.65800
Fe1306     Fe  0.61331669  0.76202075  0.83962176     1.73200
Fe1307     Fe  0.66456011  0.78162038  0.77102140     1.54400
O1308       O  0.65077883  0.74035208  0.73992285    -0.82200
O1309       O  0.64585897  0.81130560  0.84308538    -0.80500
O1310       O  0.59605464  0.71114423  0.74066961    -0.84700
O1311       O  0.60558950  0.77544555  0.71725601    -0.79500
O1312       O  0.67826138  0.75879743  0.80599143    -0.81300
O1313       O  0.57660662  0.77365065  0.83323320    -0.84100
C1314       C  0.63442395  0.79936460  0.71163520     0.96700
C1315       C  0.62360311  0.71388500  0.73474779     1.04100
O1316       O  0.62009889  0.76255033  0.78974488    -1.13000
O1317       O  0.58081637  0.71276000  0.84076224    -0.75500
O1318       O  0.55170097  0.70470240  0.79337369    -0.79000
O1319       O  0.65740557  0.80711097  0.73276097    -0.79700
C1320       C  0.55678083  0.69439839  0.82190304     0.95600
O1321       O  0.56526704  0.77281104  0.77728453    -0.77600
O1322       O  0.64859892  0.74972385  0.85298766    -0.82800
C1323       C  0.67205645  0.83154512  0.82774059     0.98200
C1324       C  0.67084120  0.74817726  0.83638482     1.04100
O1325       O  0.68294167  0.82398464  0.80144552    -0.78500
C1326       C  0.56254716  0.77962632  0.80841364     1.02400
Fe1327     Fe  0.69980725  0.87484083  0.50638856     1.65800
Fe1328     Fe  0.73838034  0.95758137  0.50119548     1.73200
Fe1329     Fe  0.76399559  0.92088101  0.55866864     1.54400
O1330       O  0.72618681  0.88173652  0.58659104    -0.82200
O1331       O  0.78124187  0.97482084  0.98954560    -0.80500
O1332       O  0.68035617  0.86142295  0.55528490    -0.84700
O1333       O  0.72717324  0.85186017  0.51306204    -0.79500
O1334       O  0.75507549  0.95182094  0.58791829    -0.81300
O1335       O  0.72151984  0.93506795  0.95282444    -0.84100
C1336       C  0.75748183  0.86287706  0.51761098     0.96700
C1337       C  0.69507349  0.86431975  0.58367142     1.04100
O1338       O  0.73400686  0.91786830  0.52240616    -1.13000
O1339       O  0.69084222  0.94323613  0.51146937    -0.75500
O1340       O  0.66725163  0.89102014  0.49493677    -0.79000
O1341       O  0.77585772  0.89040110  0.53200451    -0.79700
C1342       C  0.66672969  0.91752039  0.49925018     0.95600
O1343       O  0.71660085  0.88544721  0.95801920    -0.77600
O1344       O  0.75149275  0.98365278  0.54729634    -0.82800
C1345       C  0.80925448  0.97802618  0.50797715     0.98200
C1346       C  0.75456765  0.97743903  0.57862791     1.04100
O1347       O  0.80486690  0.96157558  0.53580970    -0.78500
C1348       C  0.71958348  0.90933060  0.93976811     1.02400
Fe1349     Fe  0.90817913  0.39869060  0.59069783     1.65800
Fe1350     Fe  0.93470930  0.41791778  0.67088869     1.73200
Fe1351     Fe  0.98903280  0.43459551  0.60907426     1.54400
O1352       O  0.97675562  0.39826637  0.57141435    -0.82200
O1353       O  0.96095052  0.46745429  0.66517685    -0.80500
O1354       O  0.92238565  0.36722067  0.57368123    -0.84700
O1355       O  0.93586870  0.43428627  0.55269376    -0.79500
O1356       O  0.99485309  0.40376669  0.64160124    -0.81300
O1357       O  0.89307857  0.42130244  0.66300378    -0.84100
C1358       C  0.96440982  0.46002793  0.55201980     0.96700
C1359       C  0.95014658  0.37110293  0.56669036     1.04100
O1360       O  0.94380260  0.41632298  0.62315239    -1.13000
O1361       O  0.90727643  0.36830944  0.67315729    -0.75500
O1362       O  0.87772109  0.36054211  0.62531329    -0.79000
O1363       O  0.98552122  0.46595773  0.57520555    -0.79700
C1364       C  0.88374780  0.34994969  0.65337727     0.95600
O1365       O  0.89156981  0.42926644  0.60713089    -0.77600
O1366       O  0.97529940  0.41424130  0.68839668    -0.82800
C1367       C  0.99149935  0.48156187  0.66652481     0.98200
C1368       C  0.99330343  0.40475185  0.67401233     1.04100
O1369       O  0.00707111  0.47205248  0.64743744    -0.78500
C1370       C  0.88383096  0.43185738  0.63769410     1.02400
Fe1371     Fe  0.03224245  0.53894925  0.85430727     1.65800
Fe1372     Fe  0.06659212  0.61876804  0.83634132     1.73200
Fe1373     Fe  0.09384458  0.59272044  0.90248029     1.54400
O1374       O  0.05768715  0.55289805  0.93196524    -0.82200
O1375       O  0.11416042  0.63412546  0.82599479    -0.80500
O1376       O  0.01116007  0.53175031  0.90183801    -0.84700
O1377       O  0.06105766  0.52044595  0.87194170    -0.79500
O1378       O  0.07978222  0.62239214  0.92548265    -0.81300
O1379       O  0.05391127  0.59068348  0.79077593    -0.84100
C1380       C  0.09196369  0.53423119  0.87106061     0.96700
C1381       C  0.02646318  0.53483058  0.92981832     1.04100
O1382       O  0.06345483  0.58381816  0.86528393    -1.13000
O1383       O  0.01838697  0.60410454  0.84432178    -0.75500
O1384       O  0.99873576  0.55106472  0.83364733    -0.79000
O1385       O  0.10995234  0.56420770  0.87923310    -0.79700
C1386       C  0.99589869  0.57664409  0.83311059     0.95600
O1387       O  0.05467252  0.54592224  0.80776361    -0.77600
O1388       O  0.07918504  0.65042520  0.87895430    -0.82800
C1389       C  0.13676495  0.64656064  0.84815685     0.98200
C1390       C  0.08071799  0.64741673  0.91165710     1.04100
O1391       O  0.13249615  0.63460796  0.87858108    -0.78500
C1392       C  0.05226977  0.56332716  0.78429851     1.02400
Fe1393     Fe  0.83181481  0.75301476  0.92205384     1.65800
Fe1394     Fe  0.81693718  0.72055576  0.50537899     1.73200
Fe1395     Fe  0.77988857  0.67264451  0.94308863     1.54400
O1396       O  0.75585056  0.68716568  0.90855766    -0.82200
O1397       O  0.82362231  0.68087860  0.51262025    -0.80500
O1398       O  0.78697147  0.74184575  0.90332318    -0.84700
O1399       O  0.83670996  0.72292475  0.88522668    -0.79500
O1400       O  0.74608237  0.66830031  0.97780280    -0.81300
O1401       O  0.87046328  0.76381076  0.99646777    -0.84100
C1402       C  0.82786062  0.69239851  0.88330444     0.96700
C1403       C  0.76018717  0.71510971  0.89946167     1.04100
O1404       O  0.81145927  0.71791273  0.95682512    -1.13000
O1405       O  0.81024669  0.76041169  0.50395901    -0.75500
O1406       O  0.82856621  0.78744209  0.95299943    -0.79000
O1407       O  0.80963972  0.67181937  0.90581285    -0.79700
C1408       C  0.81523750  0.78586128  0.98196584     0.95600
O1409       O  0.87830625  0.76786682  0.93974438    -0.77600
O1410       O  0.76846070  0.69289233  0.51936428    -0.82800
C1411       C  0.81678356  0.65453045  0.49683330     0.98200
C1412       C  0.74430489  0.66738654  0.50689997     1.04100
O1413       O  0.79927590  0.65248902  0.97747647    -0.78500
C1414       C  0.88929143  0.77398866  0.97040709     1.02400
Fe1415     Fe  0.84334421  0.63017228  0.68168108     1.65800
Fe1416     Fe  0.89028632  0.59728845  0.66679173     1.73200
Fe1417     Fe  0.83243295  0.56588673  0.72914701     1.54400
O1418       O  0.82929047  0.60165047  0.75912853    -0.82200
O1419       O  0.86204045  0.54838904  0.65618916    -0.80500
O1420       O  0.85563619  0.64938878  0.73052532    -0.84700
O1421       O  0.79531501  0.60059957  0.69668622    -0.79500
O1422       O  0.87501068  0.57802887  0.75473244    -0.81300
O1423       O  0.87401711  0.60643236  0.61979804    -0.84100
C1424       C  0.77703959  0.56951196  0.69692913     0.96700
C1425       C  0.84302077  0.63321445  0.75813956     1.04100
O1426       O  0.85583283  0.59781614  0.69281730    -1.13000
O1427       O  0.92207864  0.64659915  0.67465727    -0.75500
O1428       O  0.88867097  0.66519416  0.66291242    -0.79000
O1429       O  0.78817592  0.55084855  0.70476648    -0.79700
C1430       C  0.91698103  0.66873822  0.66295296     0.95600
O1431       O  0.83069616  0.61105830  0.63306759    -0.77600
O1432       O  0.90927418  0.58730151  0.71088208    -0.82800
C1433       C  0.84568270  0.52408619  0.67608670     0.98200
C1434       C  0.90154960  0.58172125  0.74275110     1.04100
O1435       O  0.83426001  0.52709356  0.70467496    -0.78500
C1436       C  0.84865416  0.60767949  0.61109633     1.02400
Fe1437     Fe  0.79401915  0.14897629  0.68830318     1.65800
Fe1438     Fe  0.71410278  0.10171904  0.67258828     1.73200
Fe1439     Fe  0.74103975  0.16065095  0.73343170     1.54400
O1440       O  0.77968023  0.16472035  0.76442476    -0.82200
O1441       O  0.69596542  0.13132767  0.65928777    -0.80500
O1442       O  0.80021088  0.13729133  0.73781809    -0.84700
O1443       O  0.81307045  0.19785091  0.70177382    -0.79500
O1444       O  0.71028827  0.11842411  0.75989505    -0.81300
O1445       O  0.74049716  0.11622459  0.62628534    -0.84100
C1446       C  0.79993307  0.21552044  0.69942285     0.96700
C1447       C  0.79625441  0.15002765  0.76489835     1.04100
O1448       O  0.74931429  0.13648741  0.69853306    -1.13000
O1449       O  0.73014953  0.06925747  0.68282821    -0.75500
O1450       O  0.78237966  0.10255415  0.67123729    -0.79000
O1451       O  0.77032801  0.20418464  0.70753554    -0.79700
C1452       C  0.75712247  0.07396884  0.67127114     0.95600
O1453       O  0.78832683  0.16100786  0.63894181    -0.77600
O1454       O  0.68373414  0.08441394  0.71614337    -0.82800
C1455       C  0.68691122  0.14666544  0.67879306     0.98200
C1456       C  0.68599585  0.09253418  0.74789030     1.04100
O1457       O  0.70052840  0.15780659  0.70789425    -0.78500
C1458       C  0.76724361  0.14175814  0.61727071     1.02400
Fe1459     Fe  0.93203521  0.16857156  0.92749782     1.65800
Fe1460     Fe  0.91256875  0.17677616  0.51151171     1.73200
Fe1461     Fe  0.89784606  0.21578885  0.94665627     1.54400
O1462       O  0.93837692  0.24465346  0.91657192    -0.82200
O1463       O  0.86310062  0.15684944  0.51354703    -0.80500
O1464       O  0.95976624  0.21322331  0.90371673    -0.84700
O1465       O  0.89349461  0.15532137  0.89249195    -0.79500
O1466       O  0.92116728  0.24995595  0.98392384    -0.81300
O1467       O  0.90101187  0.12899597  0.00369265    -0.84100
C1468       C  0.87330283  0.16521380  0.88712397     0.96700
C1469       C  0.96002917  0.24026653  0.90270272     1.04100
O1470       O  0.91513282  0.18727704  0.96185673    -1.13000
O1471       O  0.96197853  0.19690260  0.51189092    -0.75500
O1472       O  0.97347825  0.18043450  0.95699776    -0.79000
O1473       O  0.87226905  0.18641980  0.90612800    -0.79700
C1474       C  0.98280407  0.18979340  0.98781102     0.95600
O1475       O  0.90672599  0.12170218  0.94812496    -0.77600
O1476       O  0.92043109  0.22294510  0.52614393    -0.82800
C1477       C  0.84623268  0.16927267  0.50325380     0.98200
C1478       C  0.92727804  0.24927250  0.50990268     1.04100
O1479       O  0.85596509  0.19074295  0.97670066    -0.78500
C1480       C  0.89798235  0.11057826  0.97852240     1.02400
Fe1481     Fe  0.16472514  0.42716612  0.76387466     1.65800
Fe1482     Fe  0.15276705  0.39439777  0.84354531     1.73200
Fe1483     Fe  0.11704616  0.34497348  0.77605865     1.54400
O1484       O  0.09501439  0.36082342  0.73953778    -0.82200
O1485       O  0.17152930  0.36391668  0.84362915    -0.80500
O1486       O  0.11934870  0.41515303  0.74582725    -0.84700
O1487       O  0.17187861  0.40122158  0.72345061    -0.79500
O1488       O  0.08017563  0.33783250  0.80755249    -0.81300
O1489       O  0.20009972  0.43407029  0.83805266    -0.84100
C1490       C  0.16759272  0.37216612  0.72034891     0.96700
C1491       C  0.09520057  0.38793907  0.73633743     1.04100
O1492       O  0.14534789  0.38884966  0.79426127    -1.13000
O1493       O  0.13418608  0.42482488  0.84501999    -0.75500
O1494       O  0.15847810  0.45706876  0.79954264    -0.79000
O1495       O  0.15195700  0.34966401  0.74238970    -0.79700
C1496       C  0.14119052  0.44999337  0.82688785     0.95600
O1497       O  0.21136089  0.44244555  0.78216279    -0.77600
O1498       O  0.10629967  0.35522092  0.85708368    -0.82800
C1499       C  0.15656531  0.33395527  0.83462936     0.98200
C1500       C  0.08008121  0.33807938  0.84004134     1.04100
O1501       O  0.13391876  0.32271103  0.81186653    -0.78500
C1502       C  0.22055897  0.44707177  0.81358091     1.02400
Fe1503     Fe  0.18300222  0.30785423  0.52071285     1.65800
Fe1504     Fe  0.22642520  0.27076908  0.50906399     1.73200
Fe1505     Fe  0.16867797  0.24336014  0.57035738     1.54400
O1506       O  0.16583198  0.27999141  0.59903145    -0.82200
O1507       O  0.19775594  0.22654412  0.99636147    -0.80500
O1508       O  0.19344786  0.32719780  0.56940442    -0.84700
O1509       O  0.13364107  0.27911571  0.53284477    -0.79500
O1510       O  0.21038718  0.25534683  0.59713453    -0.81300
O1511       O  0.21345384  0.28677437  0.96174860    -0.84100
C1512       C  0.11498662  0.24805104  0.53509616     0.96700
C1513       C  0.18005670  0.31151742  0.59699147     1.04100
O1514       O  0.19305899  0.27420510  0.53378952    -1.13000
O1515       O  0.26018393  0.31854247  0.52010662    -0.75500
O1516       O  0.23082107  0.34119196  0.50481034    -0.79000
O1517       O  0.12552332  0.22929734  0.54479429    -0.79700
C1518       C  0.25811119  0.34225708  0.50737396     0.95600
O1519       O  0.16897065  0.28934634  0.97406121    -0.77600
O1520       O  0.24129796  0.25611720  0.55349709    -0.82800
C1521       C  0.17997461  0.19977462  0.51741428     0.98200
C1522       C  0.23476241  0.25421809  0.58567630     1.04100
O1523       O  0.17057810  0.20380161  0.54695733    -0.78500
C1524       C  0.18822354  0.28800615  0.95238973     1.02400
Fe1525     Fe  0.26036756  0.83817575  0.76231499     1.65800
Fe1526     Fe  0.24160942  0.84936046  0.84254462     1.73200
Fe1527     Fe  0.22977982  0.88852452  0.77607816     1.54400
O1528       O  0.26806638  0.91080787  0.74091617    -0.82200
O1529       O  0.19254407  0.83246507  0.84273666    -0.80500
O1530       O  0.29498522  0.88360508  0.74559807    -0.84700
O1531       O  0.22742531  0.83258878  0.72199473    -0.79500
O1532       O  0.25984435  0.92490194  0.80903327    -0.81300
O1533       O  0.23099138  0.80098758  0.83570357    -0.84100
C1534       C  0.20369164  0.83812484  0.71902780     0.96700
C1535       C  0.29410598  0.90943127  0.73865621     1.04100
O1536       O  0.24347744  0.85834380  0.79347547    -1.13000
O1537       O  0.29070163  0.86621150  0.84422464    -0.75500
O1538       O  0.29620913  0.84215352  0.79770817    -0.79000
O1539       O  0.19874242  0.85491451  0.74097723    -0.79700
C1540       C  0.30748768  0.85795003  0.82588700     0.95600
O1541       O  0.22745996  0.79149135  0.77942449    -0.77600
O1542       O  0.25162152  0.89632747  0.85735346    -0.82800
C1543       C  0.17850329  0.84807690  0.83313165     0.98200
C1544       C  0.26104010  0.92343805  0.84142928     1.04100
O1545       O  0.19072612  0.87126386  0.81079694    -0.78500
C1546       C  0.22261943  0.78118887  0.81038439     1.02400
Fe1547     Fe  0.12572884  0.82517931  0.51908217     1.65800
Fe1548     Fe  0.04647546  0.78295925  0.49932049     1.73200
Fe1549     Fe  0.07251147  0.83446264  0.56657540     1.54400
O1550       O  0.11121504  0.83704198  0.59676754    -0.82200
O1551       O  0.03275031  0.80619725  0.99119463    -0.80500
O1552       O  0.13069504  0.81007394  0.56739486    -0.84700
O1553       O  0.14490311  0.87327246  0.53607134    -0.79500
O1554       O  0.04210896  0.78961249  0.58864513    -0.81300
O1555       O  0.07762867  0.79307532  0.95810480    -0.84100
C1556       C  0.13232448  0.89157114  0.53664766     0.96700
C1557       C  0.12826584  0.82286325  0.59516311     1.04100
O1558       O  0.08135039  0.81336032  0.52881721    -1.13000
O1559       O  0.05880395  0.74750259  0.50591455    -0.75500
O1560       O  0.11239529  0.77912243  0.49864118    -0.79000
O1561       O  0.10240362  0.88009558  0.54406593    -0.79700
C1562       C  0.08599532  0.75144542  0.49629403     0.95600
O1563       O  0.12461969  0.83788471  0.97257477    -0.77600
O1564       O  0.01457163  0.76252011  0.54149820    -0.82800
C1565       C  0.01958131  0.82523697  0.51245290     0.98200
C1566       C  0.01749940  0.76563208  0.57429033     1.04100
O1567       O  0.03103395  0.83215723  0.54301859    -0.78500
C1568       C  0.10386595  0.81966758  0.95008763     1.02400
Fe1569     Fe  0.49664985  0.09175256  0.60066775     1.65800
Fe1570     Fe  0.48887182  0.06067834  0.68095531     1.73200
Fe1571     Fe  0.44628796  0.01052857  0.61564971     1.54400
O1572       O  0.42481731  0.02687338  0.57992534    -0.82200
O1573       O  0.50373763  0.02690278  0.67877732    -0.80500
O1574       O  0.45145923  0.08128294  0.58508388    -0.84700
O1575       O  0.50067352  0.06340561  0.56034575    -0.79500
O1576       O  0.41217374  0.00710860  0.64918247    -0.81300
O1577       O  0.53723394  0.09725465  0.67225764    -0.84100
C1578       C  0.49431618  0.03353190  0.55748996     0.96700
C1579       C  0.42627968  0.05449251  0.57703660     1.04100
O1580       O  0.47767855  0.05443170  0.63226882    -1.13000
O1581       O  0.47441326  0.09443730  0.68522326    -0.75500
O1582       O  0.49321144  0.12352119  0.63664645    -0.79000
O1583       O  0.47851422  0.01198766  0.58042814    -0.79700
C1584       C  0.47937557  0.11844995  0.66615868     0.95600
O1585       O  0.54341614  0.10561093  0.61558337    -0.77600
O1586       O  0.44172105  0.02487495  0.69705138    -0.82800
C1587       C  0.48624388  0.99694839  0.67033728     0.98200
C1588       C  0.41426368  0.00966349  0.68151601     1.04100
O1589       O  0.46190776  0.98687925  0.65005801    -0.78500
C1590       C  0.55526384  0.10898942  0.64566399     1.02400
Fe1591     Fe  0.50770897  0.96873426  0.85816363     1.65800
Fe1592     Fe  0.55466612  0.93651046  0.84084086     1.73200
Fe1593     Fe  0.49728365  0.90315536  0.90291130     1.54400
O1594       O  0.49355274  0.93801110  0.93429546    -0.82200
O1595       O  0.52653497  0.88815319  0.82815162    -0.80500
O1596       O  0.52087792  0.98658582  0.90725548    -0.84700
O1597       O  0.45925407  0.93818124  0.87337836    -0.79500
O1598       O  0.53973561  0.91553499  0.92845882    -0.81300
O1599       O  0.53804999  0.94716409  0.79484468    -0.84100
C1600       C  0.44145804  0.90698248  0.87204658     0.96700
C1601       C  0.50866911  0.96968270  0.93458598     1.04100
O1602       O  0.52027589  0.93609991  0.86750679    -1.13000
O1603       O  0.58607255  0.98514996  0.85116390    -0.75500
O1604       O  0.55332454  0.00437765  0.83895426    -0.79000
O1605       O  0.45319151  0.88842872  0.87807417    -0.79700
C1606       C  0.58156044  0.00755474  0.83929551     0.95600
O1607       O  0.49448963  0.95085750  0.80951812    -0.77600
O1608       O  0.57390078  0.92560678  0.88425473    -0.82800
C1609       C  0.51308958  0.86381960  0.84850959     0.98200
C1610       C  0.56676932  0.92079587  0.91632743     1.04100
O1611       O  0.50117295  0.86562842  0.87738375    -0.78500
C1612       C  0.51214584  0.94784400  0.78702269     1.02400
Fe1613     Fe  0.36602620  0.20543473  0.68901680     1.65800
Fe1614     Fe  0.39642315  0.28618379  0.67576906     1.73200
Fe1615     Fe  0.42773650  0.25987681  0.73847588     1.54400
O1616       O  0.39245901  0.21958984  0.76771261    -0.82200
O1617       O  0.44506108  0.30834909  0.66557495    -0.80500
O1618       O  0.34603303  0.19640253  0.73741523    -0.84700
O1619       O  0.39685796  0.18796318  0.70339721    -0.79500
O1620       O  0.41381971  0.28884585  0.76401662    -0.81300
O1621       O  0.38842572  0.26180089  0.62843995    -0.84100
C1622       C  0.42778627  0.20228098  0.70570220     0.96700
C1623       C  0.36133740  0.20096553  0.76566859     1.04100
O1624       O  0.39671675  0.25082856  0.70132145    -1.13000
O1625       O  0.34739790  0.26693894  0.68339330    -0.75500
O1626       O  0.33024973  0.21499706  0.67084663    -0.79000
O1627       O  0.44471529  0.23218648  0.71467461    -0.79700
C1628       C  0.32597208  0.23954340  0.67117647     0.95600
O1629       O  0.38556997  0.21384708  0.64053203    -0.77600
O1630       O  0.40467141  0.31433758  0.72020426    -0.82800
C1631       C  0.46865227  0.31709808  0.68625850     0.98200
C1632       C  0.40870591  0.31109594  0.75227000     1.04100
O1633       O  0.46565021  0.30217346  0.71479963    -0.78500
C1634       C  0.38844373  0.23578071  0.61915829     1.02400
Fe1635     Fe  0.24532416  0.07512348  0.93574111     1.65800
Fe1636     Fe  0.27522353  0.09317006  0.51396622     1.73200
Fe1637     Fe  0.32613286  0.10494733  0.94872905     1.54400
O1638       O  0.30892359  0.06646429  0.91310189    -0.82200
O1639       O  0.30847148  0.14243630  0.51656553    -0.80500
O1640       O  0.25455109  0.04037641  0.91640597    -0.84700
O1641       O  0.27231683  0.10850057  0.89589977    -0.79500
O1642       O  0.33237068  0.07429304  0.98093896    -0.81300
O1643       O  0.23837074  0.10112168  0.01045098    -0.84100
C1644       C  0.30194251  0.13168862  0.89242843     0.96700
C1645       C  0.28078046  0.04115971  0.90833789     1.04100
O1646       O  0.28272920  0.09083909  0.96647682    -1.13000
O1647       O  0.24208458  0.04404752  0.51340785    -0.75500
O1648       O  0.21371223  0.03868178  0.97074547    -0.79000
O1649       O  0.32381514  0.13640787  0.91410309    -0.79700
C1650       C  0.21874997  0.02612105  0.99768075     0.95600
O1651       O  0.23351266  0.10864056  0.95481469    -0.77600
O1652       O  0.31029211  0.08177806  0.52927754    -0.82800
C1653       C  0.33766434  0.15806913  0.50558841     0.98200
C1654       C  0.32830789  0.07340856  0.51351245     1.04100
O1655       O  0.34832029  0.14448522  0.98368735    -0.78500
C1656       C  0.22808854  0.11182640  0.98625134     1.02400
C1657       C  0.29980199  0.13680088  0.82883412    -0.20800
C1658       C  0.31277060  0.15222382  0.86055007    -0.07400
C1659       C  0.33942698  0.18513111  0.86054325     0.13500
C1660       C  0.35396567  0.20048644  0.82911341    -0.20900
C1661       C  0.34259459  0.18416750  0.79749551    -0.07400
C1662       C  0.31429220  0.15223930  0.79732393     0.13500
C1663       C  0.30014642  0.13338446  0.76436921    -0.24200
H1664       H  0.27939905  0.11167938  0.82873591     0.14800
H1665       H  0.37484117  0.22534149  0.82929652     0.14800
C1666       C  0.35271256  0.20445177  0.89346230    -0.24200
H1667       H  0.27921938  0.10820912  0.76938464     0.05000
H1668       H  0.31907997  0.13082308  0.75027968     0.08200
H1669       H  0.29100834  0.14641905  0.74790381     0.08200
H1670       H  0.36510755  0.19424287  0.90924961     0.08200
H1671       H  0.33250892  0.20381670  0.90848192     0.08200
H1672       H  0.37103220  0.23070704  0.88815365     0.05000
C1673       C  0.38662183  0.18890630  0.54108298    -0.20800
C1674       C  0.36036895  0.18848758  0.52391328    -0.07400
C1675       C  0.35173442  0.21234969  0.53211052     0.13500
C1676       C  0.36632399  0.23276184  0.56076294    -0.20900
C1677       C  0.38775266  0.22825202  0.58210849    -0.07400
C1678       C  0.40043750  0.20853721  0.57027574     0.13500
C1679       C  0.42703853  0.20620497  0.58913090    -0.24200
H1680       H  0.39394542  0.17123875  0.53417514     0.14800
H1681       H  0.35753950  0.24889896  0.56903945     0.14800
C1682       C  0.32120612  0.20985573  0.01719464    -0.24200
H1683       H  0.44732776  0.21186854  0.57102945     0.05000
H1684       H  0.41728357  0.18086957  0.59957248     0.08200
H1685       H  0.43741207  0.22408115  0.61057047     0.08200
H1686       H  0.29797173  0.18655594  0.02212409     0.08200
H1687       H  0.32562043  0.21343857  0.98897020     0.08200
H1688       H  0.31809108  0.23026451  0.02698071     0.05000
C1689       C  0.48446517  0.17407150  0.66931821    -0.20800
C1690       C  0.46764029  0.14057692  0.67879013    -0.07400
C1691       C  0.43894852  0.12838653  0.69931289     0.13500
C1692       C  0.42718871  0.14942530  0.70792391    -0.20900
C1693       C  0.44372396  0.18272294  0.69814436    -0.07400
C1694       C  0.47331215  0.19546849  0.67939071     0.13500
C1695       C  0.49285552  0.23131459  0.66917299    -0.24200
H1696       H  0.50658748  0.18361190  0.65412330     0.14800
H1697       H  0.40476637  0.13976146  0.72265306     0.14800
C1698       C  0.41981441  0.09308421  0.71185026    -0.24200
H1699       H  0.51454930  0.23668040  0.65346050     0.05000
H1700       H  0.50172042  0.24684725  0.69263046     0.08200
H1701       H  0.47754671  0.23831611  0.65374742     0.08200
H1702       H  0.43467965  0.08820052  0.73053471     0.08200
H1703       H  0.41295139  0.07594091  0.68983712     0.08200
H1704       H  0.39692903  0.08760480  0.72524746     0.05000
C1705       C  0.36326329  0.08020268  0.56309062    -0.20800
C1706       C  0.34766880  0.06250895  0.53328690    -0.07400
C1707       C  0.35493750  0.03876981  0.52054820     0.13500
C1708       C  0.37982743  0.03551795  0.53633474    -0.20900
C1709       C  0.39784240  0.05587343  0.56386953    -0.07400
C1710       C  0.38850638  0.07749352  0.57841099     0.13500
C1711       C  0.40494796  0.09791792  0.60998561    -0.24200
H1712       H  0.35729696  0.09804423  0.57303817     0.14800
H1713       H  0.38629213  0.01815829  0.52608872     0.14800
C1714       C  0.33659055  0.01682567  0.49050099    -0.24200
H1715       H  0.39238083  0.11089872  0.61945578     0.05000
H1716       H  0.43053236  0.11703839  0.60405089     0.08200
H1717       H  0.40458976  0.08168572  0.63103700     0.08200
H1718       H  0.34407745  0.03068965  0.96574589     0.08200
H1719       H  0.30993498  0.00359788  0.49584624     0.08200
H1720       H  0.34382740  0.99807936  0.48592261     0.05000
C1721       C  0.50400982  0.99180750  0.52926454    -0.20800
C1722       C  0.50350930  0.02147455  0.52612379    -0.07400
C1723       C  0.51249533  0.03625755  0.99352483     0.13500
C1724       C  0.51357290  0.01908740  0.96434241    -0.20900
C1725       C  0.51073281  0.98779513  0.96705139    -0.07400
C1726       C  0.51002396  0.97502226  0.00043875     0.13500
C1727       C  0.50505186  0.94265576  0.50643079    -0.24200
H1728       H  0.50197991  0.98113235  0.55465324     0.14800
H1729       H  0.51524423  0.02969313  0.93899054     0.14800
C1730       C  0.51411814  0.06884607  0.98830320    -0.24200
H1731       H  0.50559488  0.93742821  0.53434194     0.05000
H1732       H  0.53218940  0.94528333  0.99262873     0.08200
H1733       H  0.48788107  0.92221378  0.99583879     0.08200
H1734       H  0.53528847  0.08840179  0.00268774     0.08200
H1735       H  0.49116476  0.06716766  0.99743864     0.08200
H1736       H  0.51726645  0.07628265  0.96068767     0.05000
C1737       C  0.52941897  0.96737019  0.72725141    -0.20800
C1738       C  0.50379228  0.94889518  0.75047063    -0.07400
C1739       C  0.47111516  0.93733429  0.73979408     0.13500
C1740       C  0.46554183  0.94938053  0.70894081    -0.20900
C1741       C  0.49176704  0.97306905  0.68934263    -0.07400
C1742       C  0.52371112  0.97974071  0.69664841     0.13500
C1743       C  0.55180302  0.00089887  0.67286370    -0.24200
H1744       H  0.55433673  0.97504052  0.73459466     0.14800
H1745       H  0.44089071  0.94354984  0.70259953     0.14800
C1746       C  0.44204852  0.91376976  0.76140868    -0.24200
H1747       H  0.57478307  0.00234256  0.68173334     0.05000
H1748       H  0.55612108  0.02636442  0.67147180     0.08200
H1749       H  0.54623267  0.99007341  0.64661289     0.08200
H1750       H  0.44040031  0.92593535  0.78509088     0.08200
H1751       H  0.44402882  0.89190961  0.76843165     0.08200
H1752       H  0.41871076  0.90489684  0.74717666     0.05000
C1753       C  0.20502668  0.97756216  0.03456743    -0.20800
C1754       C  0.19487635  0.99174735  0.00875736    -0.07400
C1755       C  0.16088369  0.97485263  0.49430956     0.13500
C1756       C  0.14092853  0.94223858  0.50630876    -0.20900
C1757       C  0.15337434  0.92697006  0.52786542    -0.07400
C1758       C  0.18635956  0.94510131  0.53853733     0.13500
C1759       C  0.20116341  0.93067248  0.56246301    -0.24200
H1760       H  0.22901497  0.99186212  0.04613807     0.14800
H1761       H  0.11570139  0.92817212  0.49788063     0.14800
C1762       C  0.14615814  0.98954743  0.47080899    -0.24200
H1763       H  0.22633626  0.94937513  0.57046718     0.05000
H1764       H  0.20281184  0.91066520  0.54935212     0.08200
H1765       H  0.18609341  0.92091635  0.58616323     0.08200
H1766       H  0.16479115  0.99180972  0.94333667     0.08200
H1767       H  0.14907672  0.01244597  0.48235249     0.08200
H1768       H  0.11964573  0.97232592  0.46658139     0.05000
C1769       C  0.35431138  0.89052130  0.86582358    -0.20800
C1770       C  0.34142342  0.86805660  0.83817377    -0.07400
C1771       C  0.36157328  0.85705269  0.82323808     0.13500
C1772       C  0.39351507  0.86901007  0.83602945    -0.20900
C1773       C  0.40642715  0.89235968  0.86261203    -0.07400
C1774       C  0.38635137  0.90291325  0.87794700     0.13500
C1775       C  0.39832127  0.92681350  0.90765028    -0.24200
H1776       H  0.33949721  0.89923368  0.87779831     0.14800
H1777       H  0.40903345  0.86101888  0.82428147     0.14800
C1778       C  0.35011101  0.83301984  0.79374015    -0.24200
H1779       H  0.37875454  0.93076851  0.91796552     0.05000
H1780       H  0.41866784  0.95115360  0.89914564     0.08200
H1781       H  0.40682442  0.91707440  0.92895923     0.08200
H1782       H  0.36881951  0.82666119  0.78616807     0.08200
H1783       H  0.34512388  0.84400194  0.77075355     0.08200
H1784       H  0.32770651  0.80979855  0.80133661     0.05000
C1785       C  0.38408665  0.97315290  0.73008792    -0.20800
C1786       C  0.38359621  0.99075357  0.70106894    -0.07400
C1787       C  0.35314474  0.98494744  0.68789245     0.13500
C1788       C  0.32411586  0.95909739  0.70171348    -0.20900
C1789       C  0.32485678  0.93886630  0.72789376    -0.07400
C1790       C  0.35512790  0.94716305  0.74366312     0.13500
C1791       C  0.35735689  0.92878304  0.77466892    -0.24200
H1792       H  0.40733684  0.97802057  0.74058603     0.14800
H1793       H  0.30081171  0.95362701  0.69084691     0.14800
C1794       C  0.35082853  0.00561539  0.65924807    -0.24200
H1795       H  0.38259926  0.94058618  0.78518220     0.05000
H1796       H  0.35037423  0.90326249  0.76746982     0.08200
H1797       H  0.34112666  0.92835695  0.79549114     0.08200
H1798       H  0.36030309  0.00187498  0.63464627     0.08200
H1799       H  0.36470538  0.03201065  0.66641260     0.08200
H1800       H  0.32513450  0.99906616  0.65445208     0.05000
C1801       C  0.29828687  0.01376073  0.86569226    -0.20800
C1802       C  0.27805876  0.01099313  0.89334735    -0.07400
C1803       C  0.25549425  0.97926120  0.90659958     0.13500
C1804       C  0.25227933  0.95123379  0.89038247    -0.20900
C1805       C  0.27063607  0.95388616  0.86105394    -0.07400
C1806       C  0.29467411  0.98559512  0.84909049     0.13500
C1807       C  0.31679510  0.99000264  0.81913616    -0.24200
H1808       H  0.31615363  0.03805531  0.85622828     0.14800
H1809       H  0.23402538  0.92699712  0.89965463     0.14800
C1810       C  0.23487714  0.97454252  0.93808548    -0.24200
H1811       H  0.33581055  0.01629218  0.81532953     0.05000
H1812       H  0.30257220  0.98150268  0.79482979     0.08200
H1813       H  0.32938849  0.97585511  0.82398987     0.08200
H1814       H  0.21678699  0.98229546  0.93244942     0.08200
H1815       H  0.25076620  0.98909895  0.95991664     0.08200
H1816       H  0.22098118  0.94833159  0.94646047     0.05000
C1817       C  0.13155273  0.81586679  0.65876736    -0.20800
C1818       C  0.14666505  0.82225263  0.62632739    -0.07400
C1819       C  0.17946523  0.82920603  0.62450916     0.13500
C1820       C  0.19671700  0.83164968  0.65514303    -0.20900
C1821       C  0.18224600  0.82740664  0.68773351    -0.07400
C1822       C  0.14867777  0.81795538  0.68935319     0.13500
C1823       C  0.13048787  0.80954171  0.72319333    -0.24200
H1824       H  0.10621961  0.80958814  0.66022642     0.14800
H1825       H  0.22229314  0.83882451  0.65367962     0.14800
C1826       C  0.19718820  0.83604929  0.59054052    -0.24200
H1827       H  0.10391877  0.79964317  0.71925734     0.05000
H1828       H  0.13965749  0.83175057  0.73955034     0.08200
H1829       H  0.13343259  0.79043188  0.73702496     0.08200
H1830       H  0.19685941  0.85678923  0.57704335     0.08200
H1831       H  0.18535654  0.81370770  0.57415355     0.08200
H1832       H  0.22311614  0.84289102  0.59407568     0.05000
C1833       C  0.15215271  0.86772951  0.87274162    -0.20800
C1834       C  0.14944119  0.84173834  0.85276326    -0.07400
C1835       C  0.12407816  0.80927501  0.85968797     0.13500
C1836       C  0.10582779  0.80281051  0.89013581    -0.20900
C1837       C  0.11263429  0.82833682  0.91337737    -0.07400
C1838       C  0.13363942  0.86145268  0.90283262     0.13500
C1839       C  0.13826952  0.89058788  0.92352109    -0.24200
H1840       H  0.17098485  0.89285308  0.86679800     0.14800
H1841       H  0.08865520  0.77748532  0.89729770     0.14800
C1842       C  0.11721429  0.78151015  0.83554001    -0.24200
H1843       H  0.12057219  0.88330570  0.94505178     0.05000
H1844       H  0.13442867  0.90748235  0.90658120     0.08200
H1845       H  0.16348639  0.90415230  0.93404296     0.08200
H1846       H  0.13854418  0.77789597  0.83403312     0.08200
H1847       H  0.11188871  0.78736881  0.80937071     0.08200
H1848       H  0.09571304  0.75794608  0.84409966     0.05000
C1849       C  0.18778205  0.15394501  0.53536252    -0.20800
C1850       C  0.17954529  0.16881854  0.50891753    -0.07400
C1851       C  0.18950451  0.16488227  0.97430152     0.13500
C1852       C  0.20117745  0.14329839  0.96798450    -0.20900
C1853       C  0.21010654  0.12935847  0.99504003    -0.07400
C1854       C  0.20310721  0.13416167  0.02952942     0.13500
C1855       C  0.21108539  0.12078819  0.55877481    -0.24200
H1856       H  0.18626463  0.16019960  0.56191426     0.14800
H1857       H  0.20488723  0.13869628  0.94150324     0.14800
C1858       C  0.18112652  0.17934083  0.94374340    -0.24200
H1859       H  0.20353531  0.12649795  0.58366753     0.05000
H1860       H  0.23519299  0.12686650  0.06345536     0.08200
H1861       H  0.19885113  0.09353099  0.55688994     0.08200
H1862       H  0.19953249  0.20583787  0.94043673     0.08200
H1863       H  0.15515313  0.18381330  0.45315950     0.08200
H1864       H  0.18079614  0.16693682  0.91932308     0.05000
C1865       C  0.28746862  0.26026174  0.66278436    -0.20800
C1866       C  0.29739165  0.23781491  0.65328317    -0.07400
C1867       C  0.28396042  0.21872408  0.62300668     0.13500
C1868       C  0.26367471  0.22487634  0.60170610    -0.20900
C1869       C  0.25527187  0.24852720  0.61030866    -0.07400
C1870       C  0.26609529  0.26542251  0.64202079     0.13500
C1871       C  0.25634972  0.28983870  0.65345981    -0.24200
H1872       H  0.29732348  0.27462817  0.68609302     0.14800
H1873       H  0.25424363  0.21107006  0.57798571     0.14800
C1874       C  0.29146993  0.19253917  0.61202025    -0.24200
H1875       H  0.26844678  0.30199276  0.67803262     0.05000
H1876       H  0.22957571  0.27694084  0.65781083     0.08200
H1877       H  0.26328653  0.30930983  0.63349567     0.08200
H1878       H  0.28263208  0.17279031  0.63192075     0.08200
H1879       H  0.31804769  0.20334674  0.60830448     0.08200
H1880       H  0.27948229  0.18100942  0.58723311     0.05000
C1881       C  0.16966810  0.37003135  0.65649036    -0.20800
C1882       C  0.17791809  0.36227719  0.68861598    -0.07400
C1883       C  0.18987394  0.34004393  0.68983192     0.13500
C1884       C  0.19078085  0.32430858  0.65946188    -0.20900
C1885       C  0.18066467  0.33057443  0.62771623    -0.07400
C1886       C  0.17088149  0.35448860  0.62604641     0.13500
C1887       C  0.15974037  0.36224231  0.59263717    -0.24200
H1888       H  0.16023375  0.38675514  0.65548984     0.14800
H1889       H  0.19907592  0.30667965  0.66055575     0.14800
C1890       C  0.20203640  0.33298537  0.72299716    -0.24200
H1891       H  0.15119188  0.38007749  0.59636727     0.05000
H1892       H  0.13918789  0.33932870  0.58169400     0.08200
H1893       H  0.18023912  0.37331590  0.57392670     0.08200
H1894       H  0.18170080  0.31962248  0.74154237     0.08200
H1895       H  0.22105474  0.35650277  0.73460609     0.08200
H1896       H  0.21308295  0.31736678  0.71854762     0.05000
C1897       C  0.14893484  0.27517290  0.90438424    -0.20800
C1898       C  0.18168563  0.29069412  0.91537275    -0.07400
C1899       C  0.20637157  0.31383330  0.89317735     0.13500
C1900       C  0.19734103  0.32387993  0.86294390    -0.20900
C1901       C  0.16435346  0.31192832  0.85475098    -0.07400
C1902       C  0.13992231  0.28556305  0.87434603     0.13500
C1903       C  0.10418451  0.27062596  0.86578986    -0.24200
H1904       H  0.13003324  0.25692395  0.92103246     0.14800
H1905       H  0.21604365  0.34390374  0.84767071     0.14800
C1906       C  0.24197995  0.33083160  0.90295634    -0.24200
H1907       H  0.08853638  0.24989942  0.88344769     0.05000
H1908       H  0.09956901  0.26082441  0.83911077     0.08200
H1909       H  0.09682652  0.28950339  0.86801879     0.08200
H1910       H  0.24974896  0.31234308  0.90653885     0.08200
H1911       H  0.24585337  0.34475290  0.92716691     0.08200
H1912       H  0.25784347  0.34862193  0.88282586     0.05000
C1913       C  0.02930942  0.23387023  0.52191977    -0.20800
C1914       C  0.01696324  0.20115193  0.99814517    -0.07400
C1915       C  0.04380788  0.22491769  0.97864188     0.13500
C1916       C  0.07551508  0.23812735  0.99199253    -0.20900
C1917       C  0.08011904  0.23325110  0.52544429    -0.07400
C1918       C  0.06188771  0.24873170  0.53280983     0.13500
C1919       C  0.07616440  0.28048502  0.55280961    -0.24200
H1920       H  0.01555589  0.24600210  0.52746774     0.14800
H1921       H  0.09610886  0.25659090  0.97721356     0.14800
C1922       C  0.03910959  0.23794552  0.94478863    -0.24200
H1923       H  0.05757860  0.28757479  0.55838130     0.05000
H1924       H  0.09589405  0.30090434  0.53766254     0.08200
H1925       H  0.08599228  0.27769134  0.57785445     0.08200
H1926       H  0.02270712  0.24808143  0.94856741     0.08200
H1927       H  0.02827807  0.21786906  0.92547023     0.08200
H1928       H  0.06257779  0.25804996  0.93427077     0.05000
C1929       C  0.01202044  0.29268964  0.90672257    -0.20800
C1930       C  0.98797935  0.26806953  0.88588799    -0.07400
C1931       C  0.99338857  0.26764439  0.85040072     0.13500
C1932       C  0.02299582  0.29190252  0.83639741    -0.20900
C1933       C  0.04830378  0.31579359  0.85726022    -0.07400
C1934       C  0.04260239  0.31602920  0.89314037     0.13500
C1935       C  0.06851536  0.33962701  0.91763010    -0.24200
H1936       H  0.00757938  0.29223741  0.93420436     0.14800
H1937       H  0.02675739  0.29098008  0.80897491     0.14800
C1938       C  0.96823063  0.24111739  0.82741784    -0.24200
H1939       H  0.05920717  0.33646995  0.94446612     0.05000
H1940       H  0.07699628  0.36535489  0.90964219     0.08200
H1941       H  0.08938402  0.33518284  0.91801596     0.08200
H1942       H  0.94476292  0.24090873  0.82916268     0.08200
H1943       H  0.96440127  0.21674923  0.83557861     0.08200
H1944       H  0.97601830  0.24501712  0.79997218     0.05000
C1945       C  0.64496828  0.13603033  0.63442629    -0.20800
C1946       C  0.65720003  0.14769675  0.66775558    -0.07400
C1947       C  0.63733502  0.15312162  0.69090875     0.13500
C1948       C  0.60467376  0.14225242  0.68188030    -0.20900
C1949       C  0.59132236  0.12630610  0.65037935    -0.07400
C1950       C  0.61232128  0.12471975  0.62560846     0.13500
C1951       C  0.60026768  0.10891358  0.59076575    -0.24200
H1952       H  0.66032404  0.13315110  0.61580939     0.14800
H1953       H  0.58895492  0.14474414  0.70033907     0.14800
C1954       C  0.64950018  0.16885379  0.72568185    -0.24200
H1955       H  0.61992200  0.10874154  0.57544006     0.05000
H1956       H  0.59126647  0.12285996  0.57563292     0.08200
H1957       H  0.58037250  0.08290206  0.59405036     0.08200
H1958       H  0.67196473  0.19330771  0.72240097     0.08200
H1959       H  0.65464103  0.15279835  0.74247079     0.08200
H1960       H  0.63114492  0.17277573  0.73921000     0.05000
C1961       C  0.66631253  0.06759371  0.80587178    -0.20800
C1962       C  0.65886127  0.07202820  0.77184967    -0.07400
C1963       C  0.62578750  0.05956202  0.76248221     0.13500
C1964       C  0.60112541  0.04121907  0.78662534    -0.20900
C1965       C  0.60850242  0.03483635  0.81987565    -0.07400
C1966       C  0.64159462  0.04927914  0.83002417     0.13500
C1967       C  0.65165571  0.04630148  0.86614771    -0.24200
H1968       H  0.69165996  0.07828546  0.81364948     0.14800
H1969       H  0.57576500  0.03014655  0.77874136     0.14800
C1970       C  0.61618422  0.06586921  0.72736888    -0.24200
H1971       H  0.66797969  0.07131567  0.87673040     0.05000
H1972       H  0.66510649  0.03265677  0.86572983     0.08200
H1973       H  0.63055879  0.03361316  0.88390796     0.08200
H1974       H  0.62301867  0.05387037  0.70715344     0.08200
H1975       H  0.62860437  0.09277257  0.72235943     0.08200
H1976       H  0.58944063  0.05593820  0.72541539     0.05000
C1977       C  0.82137188  0.15440539  0.85969233    -0.20800
C1978       C  0.85059833  0.15368320  0.85687423    -0.07400
C1979       C  0.85943497  0.14751621  0.82412580     0.13500
C1980       C  0.84058520  0.14533819  0.79497042    -0.20900
C1981       C  0.81296506  0.14908275  0.79741524    -0.07400
C1982       C  0.80245991  0.15211707  0.83068275     0.13500
C1983       C  0.77135183  0.15283123  0.83622674    -0.24200
H1984       H  0.81389200  0.15816688  0.88483779     0.14800
H1985       H  0.84837613  0.14202051  0.76982440     0.14800
C1986       C  0.88943526  0.14472521  0.81927859    -0.24200
H1987       H  0.76579800  0.15260082  0.86407724     0.05000
H1988       H  0.75046435  0.13079028  0.82431204     0.08200
H1989       H  0.77359922  0.17562648  0.82491817     0.08200
H1990       H  0.88720409  0.12377141  0.83484699     0.08200
H1991       H  0.91147226  0.16789603  0.82739432     0.08200
H1992       H  0.89281465  0.14025060  0.79190876     0.05000
C1993       C  0.77544116  0.12089199  0.56261505    -0.20800
C1994       C  0.77652618  0.14720235  0.58060756    -0.07400
C1995       C  0.79290104  0.17915879  0.56587413     0.13500
C1996       C  0.81200452  0.18486113  0.53627672    -0.20900
C1997       C  0.81574473  0.15955146  0.52215026    -0.07400
C1998       C  0.79519856  0.12673570  0.53358753     0.13500
C1999       C  0.79926427  0.10063969  0.01392560    -0.24200
H2000       H  0.76198173  0.09619243  0.57339759     0.14800
H2001       H  0.82691641  0.20985985  0.52667458     0.14800
C2002       C  0.79132536  0.20743993  0.58200404    -0.24200
H2003       H  0.78113139  0.07619729  0.02474124     0.05000
H2004       H  0.82386406  0.10349974  0.01663238     0.08200
H2005       H  0.79365191  0.10085416  0.98611987     0.08200
H2006       H  0.80299460  0.21322629  0.60782637     0.08200
H2007       H  0.76540878  0.20089443  0.58450552     0.08200
H2008       H  0.80420509  0.23019855  0.56603470     0.05000
C2009       C  0.93426887  0.70439564  0.61168624    -0.20800
C2010       C  0.94309402  0.69673872  0.64353487    -0.07400
C2011       C  0.97636642  0.71258465  0.65298178     0.13500
C2012       C  0.99994730  0.73512382  0.62989255    -0.20900
C2013       C  0.99124882  0.74111115  0.59698835    -0.07400
C2014       C  0.95779589  0.72514405  0.58768080     0.13500
C2015       C  0.94635802  0.72922314  0.55258972    -0.24200
H2016       H  0.90867138  0.69221973  0.60447822     0.14800
H2017       H  0.02549268  0.74754263  0.63728919     0.14800
C2018       C  0.98708536  0.70646023  0.68751840    -0.24200
H2019       H  0.91926820  0.71581731  0.55060878     0.05000
H2020       H  0.95546341  0.71918545  0.53245778     0.08200
H2021       H  0.95537336  0.75557827  0.54730332     0.08200
H2022       H  0.98146006  0.68055805  0.68947054     0.08200
H2023       H  0.97434376  0.71152700  0.70846496     0.08200
H2024       H  0.01382078  0.72262211  0.69144588     0.05000
C2025       C  0.92991091  0.79947850  0.51684024    -0.20800
C2026       C  0.92524590  0.79292913  0.97681854    -0.07400
C2027       C  0.94793985  0.79222694  0.95382156     0.13500
C2028       C  0.98051716  0.80571245  0.96423402    -0.20900
C2029       C  0.98722667  0.82122533  0.50281271    -0.07400
C2030       C  0.96278218  0.81517742  0.52741467     0.13500
C2031       C  0.97051872  0.82339858  0.56507509    -0.24200
H2032       H  0.91113661  0.79353498  0.53602950     0.14800
H2033       H  0.99714439  0.80357266  0.94678820     0.14800
C2034       C  0.93796836  0.77529063  0.91925671    -0.24200
H2035       H  0.94848649  0.81832208  0.57999026     0.05000
H2036       H  0.98882776  0.85000499  0.56783069     0.08200
H2037       H  0.98004944  0.80832230  0.57678115     0.08200
H2038       H  0.92829564  0.78766673  0.90252899     0.08200
H2039       H  0.91912992  0.74891099  0.92283698     0.08200
H2040       H  0.95887382  0.77617308  0.90543497     0.05000
C2041       C  0.83855334  0.63481648  0.82207373    -0.20800
C2042       C  0.84343702  0.65112289  0.79025556    -0.07400
C2043       C  0.84718764  0.68314802  0.79013896     0.13500
C2044       C  0.84393192  0.69668173  0.82122205    -0.20900
C2045       C  0.83688433  0.67933852  0.85265726    -0.07400
C2046       C  0.83526430  0.64824775  0.85305839     0.13500
C2047       C  0.83008344  0.62863655  0.88583990    -0.24200
H2048       H  0.83660370  0.61082623  0.82271114     0.14800
H2049       H  0.84545117  0.72047385  0.82060988     0.14800
C2050       C  0.85336397  0.70299324  0.75742812    -0.24200
H2051       H  0.83309869  0.60697319  0.88158513     0.05000
H2052       H  0.80490453  0.61894905  0.89568745     0.08200
H2053       H  0.84823873  0.64434645  0.90560742     0.08200
H2054       H  0.83326182  0.68904422  0.73873052     0.08200
H2055       H  0.87709743  0.70867080  0.74602271     0.08200
H2056       H  0.85461708  0.72688191  0.76221699     0.05000
C2057       C  0.85556644  0.63880113  0.52037328    -0.20800
C2058       C  0.82319967  0.63123909  0.51568674    -0.07400
C2059       C  0.79841498  0.60737179  0.53703688     0.13500
C2060       C  0.80724578  0.59610785  0.56631046    -0.20900
C2061       C  0.84024751  0.60787612  0.57424922    -0.07400
C2062       C  0.86426550  0.62624846  0.54894033     0.13500
C2063       C  0.89903749  0.63387238  0.55243022    -0.24200
H2064       H  0.87435079  0.65638561  0.50314906     0.14800
H2065       H  0.78852469  0.58050634  0.58474898     0.14800
C2066       C  0.76290383  0.59613711  0.53072697    -0.24200
H2067       H  0.91419060  0.64831615  0.53004461     0.05000
H2068       H  0.89939781  0.61045770  0.55381068     0.08200
H2069       H  0.91047354  0.64831065  0.57595865     0.08200
H2070       H  0.76660285  0.58928217  0.99968244     0.08200
H2071       H  0.75892424  0.61739411  0.53185967     0.08200
H2072       H  0.74675027  0.57767730  0.55021592     0.05000
C2073       C  0.20638628  0.73503696  0.85238312    -0.20800
C2074       C  0.20627485  0.74507826  0.81803734    -0.07400
C2075       C  0.18920930  0.72042653  0.79283594     0.13500
C2076       C  0.17026747  0.68742070  0.80336943    -0.20900
C2077       C  0.16663412  0.67812782  0.83841437    -0.07400
C2078       C  0.18686461  0.70201878  0.86296675     0.13500
C2079       C  0.18705058  0.69365986  0.90059256    -0.24200
H2080       H  0.22062998  0.75340575  0.87163949     0.14800
H2081       H  0.15598482  0.66901176  0.78413750     0.14800
C2082       C  0.18901440  0.72830095  0.75504500    -0.24200
H2083       H  0.20547668  0.71525392  0.91547682     0.05000
H2084       H  0.19320550  0.67387726  0.90314797     0.08200
H2085       H  0.16291078  0.68552985  0.91252751     0.08200
H2086       H  0.21429666  0.74068637  0.74470151     0.08200
H2087       H  0.17826161  0.74432645  0.75147204     0.08200
H2088       H  0.17419251  0.70575131  0.73946230     0.05000
C2089       C  0.07240594  0.66583638  0.96866999    -0.20800
C2090       C  0.08485208  0.67420001  0.93486997    -0.07400
C2091       C  0.10303561  0.70788667  0.92519841     0.13500
C2092       C  0.10759328  0.73197939  0.94921100    -0.20900
C2093       C  0.09380293  0.72348889  0.98230986    -0.07400
C2094       C  0.07627069  0.69000853  0.99236321     0.13500
C2095       C  0.06208474  0.67968517  0.02808578    -0.24200
H2096       H  0.05900015  0.64012396  0.97643873     0.14800
H2097       H  0.12063437  0.75770033  0.94139614     0.14800
C2098       C  0.11794832  0.71896455  0.88986839    -0.24200
H2099       H  0.05104443  0.65270634  0.03218171     0.05000
H2100       H  0.04259523  0.68575346  0.03223140     0.08200
H2101       H  0.06295323  0.69191826  0.54081326     0.08200
H2102       H  0.13403847  0.70889884  0.88412851     0.08200
H2103       H  0.13304483  0.74623212  0.88796106     0.08200
H2104       H  0.09840123  0.71047103  0.87009264     0.05000
C2105       C  0.14629741  0.50540953  0.83027014    -0.20800
C2106       C  0.12870784  0.47162964  0.83845929    -0.07400
C2107       C  0.09904050  0.45890788  0.85723381     0.13500
C2108       C  0.08867042  0.48035409  0.86829676    -0.20900
C2109       C  0.10647698  0.51413520  0.86078016    -0.07400
C2110       C  0.13547295  0.52683070  0.84098708     0.13500
C2111       C  0.15433173  0.56245856  0.82974271    -0.24200
H2112       H  0.16863107  0.51511940  0.81541082     0.14800
H2113       H  0.06613029  0.47050674  0.88284229     0.14800
C2114       C  0.07728555  0.42263531  0.86499525    -0.24200
H2115       H  0.17528552  0.56756479  0.81288695     0.05000
H2116       H  0.16426598  0.57867770  0.85260601     0.08200
H2117       H  0.13808192  0.56875878  0.81497531     0.08200
H2118       H  0.08967934  0.41453217  0.88350961     0.08200
H2119       H  0.07135389  0.40815725  0.84080691     0.08200
H2120       H  0.05382328  0.41713072  0.87702938     0.05000
C2121       C  0.95860656  0.55659516  0.78330178    -0.20800
C2122       C  0.96831339  0.57538336  0.81359930    -0.07400
C2123       C  0.95423322  0.59484781  0.82155840     0.13500
C2124       C  0.93195669  0.59592824  0.79821208    -0.20900
C2125       C  0.92397574  0.57858591  0.76689706    -0.07400
C2126       C  0.93678701  0.55781530  0.75988266     0.13500
C2127       C  0.92775142  0.53587783  0.72858869    -0.24200
H2128       H  0.96891368  0.54138728  0.77708069     0.14800
H2129       H  0.92135194  0.61108539  0.80399440     0.14800
C2130       C  0.96205820  0.61397060  0.85469720    -0.24200
H2131       H  0.94987706  0.54340648  0.71267442     0.05000
H2132       H  0.90887204  0.53618581  0.71207870     0.08200
H2133       H  0.91787669  0.50994469  0.73712252     0.08200
H2134       H  0.98810513  0.63375414  0.85511931     0.08200
H2135       H  0.95692247  0.59708149  0.87699034     0.08200
H2136       H  0.94709726  0.62588514  0.85771801     0.05000
C2137       C  0.82886729  0.29956690  0.65750651    -0.20800
C2138       C  0.86253033  0.31524791  0.66410953    -0.07400
C2139       C  0.87544903  0.29764031  0.68137462     0.13500
C2140       C  0.85416241  0.26553760  0.69297047    -0.20900
C2141       C  0.82032391  0.25013096  0.68758183    -0.07400
C2142       C  0.80753139  0.26717887  0.66894073     0.13500
C2143       C  0.77175559  0.25128725  0.65999772    -0.24200
H2144       H  0.81914511  0.31289983  0.64377198     0.14800
H2145       H  0.86415207  0.25234895  0.70650627     0.14800
C2146       C  0.91172103  0.31184335  0.68678904    -0.24200
H2147       H  0.76663263  0.26762445  0.64359324     0.05000
H2148       H  0.75702231  0.24585176  0.68386808     0.08200
H2149       H  0.76383300  0.22812668  0.64554273     0.08200
H2150       H  0.92136489  0.33252375  0.70537544     0.08200
H2151       H  0.92480256  0.32056635  0.66180437     0.08200
H2152       H  0.91728462  0.29325570  0.69753777     0.05000
C2153       C  0.96021301  0.31036225  0.51170405    -0.20800
C2154       C  0.93839111  0.28053294  0.52856638    -0.07400
C2155       C  0.92406733  0.28153162  0.56009796     0.13500
C2156       C  0.93034191  0.31202786  0.57264709    -0.20900
C2157       C  0.95028995  0.34153291  0.55456614    -0.07400
C2158       C  0.96634505  0.34092848  0.52436126     0.13500
C2159       C  0.98818310  0.37202081  0.50441594    -0.24200
H2160       H  0.97136505  0.30960785  0.48761739     0.14800
H2161       H  0.91835773  0.31275648  0.59613021     0.14800
C2162       C  0.90043062  0.25065542  0.57952743    -0.24200
H2163       H  0.99797486  0.36689931  0.48075508     0.05000
H2164       H  0.00922236  0.38913021  0.52071526     0.08200
H2165       H  0.97424370  0.38416604  0.49655080     0.08200
H2166       H  0.91293518  0.23722644  0.58797645     0.08200
H2167       H  0.87933139  0.23452612  0.56278842     0.08200
H2168       H  0.89071793  0.25625846  0.60295192     0.05000
C2169       C  0.85551453  0.44918760  0.67950939    -0.20800
C2170       C  0.86489584  0.44874346  0.64509871    -0.07400
C2171       C  0.85878656  0.46710456  0.61999634     0.13500
C2172       C  0.84780382  0.48831919  0.63077982    -0.20900
C2173       C  0.84339034  0.49247026  0.66589266    -0.07400
C2174       C  0.84495766  0.47079153  0.69027556     0.13500
C2175       C  0.83759182  0.47149652  0.72796869    -0.24200
H2176       H  0.85843341  0.43405206  0.69876389     0.14800
H2177       H  0.84532741  0.50396260  0.61178483     0.14800
C2178       C  0.86530381  0.46622651  0.58206057    -0.24200
H2179       H  0.83954675  0.45238689  0.74304655     0.05000
H2180       H  0.81226514  0.46668406  0.73087749     0.08200
H2181       H  0.85507612  0.49578047  0.73930252     0.08200
H2182       H  0.85104430  0.44051002  0.57251484     0.08200
H2183       H  0.89179828  0.47627735  0.57761605     0.08200
H2184       H  0.85800296  0.48137192  0.56645846     0.05000
C2185       C  0.02208397  0.37310990  0.68086799    -0.20800
C2186       C  0.01504135  0.39659537  0.69440738    -0.07400
C2187       C  0.03269555  0.41496338  0.72361551     0.13500
C2188       C  0.05797699  0.41073355  0.73699068    -0.20900
C2189       C  0.06618136  0.38853325  0.72225218    -0.07400
C2190       C  0.04720841  0.36870581  0.69445281     0.13500
C2191       C  0.05428427  0.34409558  0.67782685    -0.24200
H2192       H  0.00848323  0.35881019  0.65862883     0.14800
H2193       H  0.07194982  0.42543218  0.75887647     0.14800
C2194       C  0.02635656  0.44030638  0.73976594    -0.24200
H2195       H  0.03806147  0.33190284  0.65536327     0.05000
H2196       H  0.05026688  0.32454708  0.69671004     0.08200
H2197       H  0.07996375  0.35670152  0.66859134     0.08200
H2198       H  0.00088076  0.42822590  0.74951146     0.08200
H2199       H  0.03030772  0.45950057  0.72043310     0.08200
H2200       H  0.04293607  0.45281421  0.76190740     0.05000
C2201       C  0.96433354  0.46898644  0.48890628    -0.20800
C2202       C  0.97520425  0.48264817  0.52171784    -0.07400
C2203       C  0.99987138  0.51638280  0.52425474     0.13500
C2204       C  0.01556694  0.53177284  0.99281639    -0.20900
C2205       C  0.00759980  0.51604432  0.96069245    -0.07400
C2206       C  0.98276970  0.48239359  0.95893455     0.13500
C2207       C  0.97305120  0.46400484  0.92521630    -0.24200
H2208       H  0.94520905  0.44337991  0.48682046     0.14800
H2209       H  0.03395666  0.55772612  0.99403256     0.14800
C2210       C  0.00986728  0.53402115  0.55843659    -0.24200
H2211       H  0.95469597  0.43748661  0.92895803     0.05000
H2212       H  0.99482801  0.46562267  0.91265633     0.08200
H2213       H  0.96200983  0.47460723  0.90787117     0.08200
H2214       H  0.02302343  0.52480508  0.57444040     0.08200
H2215       H  0.98788988  0.53044793  0.57239258     0.08200
H2216       H  0.02659535  0.56096365  0.55494793     0.05000
C2217       C  0.00748366  0.51837123  0.75527684    -0.20800
C2218       C  0.03829099  0.54626956  0.75181350    -0.07400
C2219       C  0.05433897  0.55412808  0.71967910     0.13500
C2220       C  0.03878675  0.53293781  0.69144668    -0.20900
C2221       C  0.00735006  0.50501567  0.69508172    -0.07400
C2222       C  0.99132009  0.49814347  0.72761414     0.13500
C2223       C  0.95760915  0.46886665  0.73466675    -0.24200
H2224       H  0.99595158  0.51203519  0.78047091     0.14800
H2225       H  0.05106718  0.53807977  0.66673384     0.14800
C2226       C  0.08787544  0.58385182  0.71571241    -0.24200
H2227       H  0.95051015  0.46703332  0.76222759     0.05000
H2228       H  0.95687562  0.44558617  0.72819202     0.08200
H2229       H  0.93886850  0.47119342  0.71971109     0.08200
H2230       H  0.10516036  0.58174399  0.73348650     0.08200
H2231       H  0.08712245  0.60646486  0.72202917     0.08200
H2232       H  0.09712025  0.58629950  0.68893446     0.05000
C2233       C  0.85950753  0.02656437  0.02272165    -0.20800
C2234       C  0.84193503  0.00581941  0.49845902    -0.07400
C2235       C  0.84264887  0.01978060  0.96277565     0.13500
C2236       C  0.86400004  0.05345154  0.95716577    -0.20900
C2237       C  0.88175077  0.07444012  0.98445337    -0.07400
C2238       C  0.88166399  0.06026595  0.01695595     0.13500
C2239       C  0.90431132  0.08031055  0.04581099    -0.24200
H2240       H  0.85710094  0.01641453  0.04843530     0.14800
H2241       H  0.86536036  0.06351605  0.93157137     0.14800
C2242       C  0.83239767  0.99600400  0.43354020    -0.24200
H2243       H  0.90296917  0.06442854  0.06783749     0.05000
H2244       H  0.89762461  0.09815058  0.05582885     0.08200
H2245       H  0.92993374  0.09362215  0.03636642     0.08200
H2246       H  0.81534948  0.00240292  0.42067723     0.08200
H2247       H  0.81077884  0.97218463  0.93876811     0.08200
H2248       H  0.85157386  0.99940150  0.41487032     0.05000
C2249       C  0.73459883  0.99073325  0.63173037    -0.20800
C2250       C  0.75778292  0.00119404  0.60518581    -0.07400
C2251       C  0.78317520  0.03436442  0.60378900     0.13500
C2252       C  0.78340178  0.05684270  0.62746178    -0.20900
C2253       C  0.75868918  0.04719900  0.65254018    -0.07400
C2254       C  0.73447503  0.01332177  0.65530750     0.13500
C2255       C  0.70832161  0.00061623  0.68265104    -0.24200
H2256       H  0.71563937  0.96497105  0.63306622     0.14800
H2257       H  0.80234815  0.08251851  0.62513831     0.14800
C2258       C  0.81044410  0.04599850  0.57778305    -0.24200
H2259       H  0.69341702  0.97325759  0.68263622     0.05000
H2260       H  0.69137908  0.01001025  0.67796242     0.08200
H2261       H  0.71973531  0.00841243  0.70852297     0.08200
H2262       H  0.80063191  0.04216268  0.55114773     0.08200
H2263       H  0.82324943  0.03194291  0.58148883     0.08200
H2264       H  0.82868183  0.07262945  0.58069069     0.05000
C2265       C  0.79259737  0.83891626  0.52993000    -0.20800
C2266       C  0.77174944  0.84254234  0.50678089    -0.07400
C2267       C  0.76763839  0.82940523  0.97424265     0.13500
C2268       C  0.78414044  0.81271918  0.96593370    -0.20900
C2269       C  0.80486628  0.80981114  0.98962287    -0.07400
C2270       C  0.80581521  0.81880799  0.52224069     0.13500
C2271       C  0.82753319  0.81555130  0.54856195    -0.24200
H2272       H  0.79783548  0.85118394  0.55468336     0.14800
H2273       H  0.77959956  0.80057508  0.94115744     0.14800
C2274       C  0.74415227  0.82877503  0.94756757    -0.24200
H2275       H  0.83222523  0.83185167  0.57108913     0.05000
H2276       H  0.85146061  0.82247514  0.53671857     0.08200
H2277       H  0.81573801  0.78986646  0.55846827     0.08200
H2278       H  0.75716598  0.83857182  0.92271577     0.08200
H2279       H  0.73578157  0.84649574  0.45323366     0.08200
H2280       H  0.72422843  0.80294487  0.94350888     0.05000
C2281       C  0.64504672  0.94484524  0.96460248    -0.20800
C2282       C  0.63610299  0.91595354  0.98366374    -0.07400
C2283       C  0.60345347  0.88962491  0.98255756     0.13500
C2284       C  0.58082003  0.89266475  0.96171084    -0.20900
C2285       C  0.59058753  0.92046947  0.94052706    -0.07400
C2286       C  0.62283846  0.94722794  0.94265706     0.13500
C2287       C  0.63379841  0.97844501  0.92217977    -0.24200
H2288       H  0.67012929  0.96506299  0.96535187     0.14800
H2289       H  0.55565506  0.87273521  0.96103726     0.14800
C2290       C  0.59236301  0.85849336  0.00324376    -0.24200
H2291       H  0.65946008  0.99744957  0.92814737     0.05000
H2292       H  0.61796730  0.98882715  0.92837503     0.08200
H2293       H  0.63232420  0.97320401  0.89416185     0.08200
H2294       H  0.60361539  0.87551324  0.53754522     0.08200
H2295       H  0.60483179  0.84536089  0.99409236     0.08200
H2296       H  0.56563174  0.84131211  0.00069673     0.12200
C2297       C  0.53625080  0.79759484  0.85213972    -0.20800
C2298       C  0.54297774  0.79569495  0.81708560    -0.07400
C2299       C  0.53261529  0.81088461  0.79227532     0.13500
C2300       C  0.51876324  0.82959105  0.80348448    -0.20900
C2301       C  0.51548033  0.83440519  0.83874783    -0.07400
C2302       C  0.52305664  0.81684887  0.86327871     0.13500
C2303       C  0.51990992  0.82027218  0.90144467    -0.24200
H2304       H  0.54296030  0.78528230  0.87143334     0.14800
H2305       H  0.51264441  0.84265469  0.78448743     0.14800
C2306       C  0.53742269  0.80922384  0.75405785    -0.24200
H2307       H  0.52722949  0.80507899  0.91692597     0.05000
H2308       H  0.49416263  0.81225180  0.90792390     0.08200
H2309       H  0.53604596  0.84632743  0.90892770     0.08200
H2310       H  0.52404124  0.78315579  0.74547262     0.08200
H2311       H  0.56385792  0.82058625  0.74816137     0.08200
H2312       H  0.52797963  0.82272471  0.73878138     0.05000
C2313       C  0.72748705  0.71339747  0.84920201    -0.20800
C2314       C  0.73285875  0.71734976  0.88465242    -0.07400
C2315       C  0.71492303  0.72752963  0.90494604     0.13500
C2316       C  0.69375443  0.73618420  0.88878294    -0.20900
C2317       C  0.68993686  0.73454717  0.85276714    -0.07400
C2318       C  0.70603289  0.72150828  0.83287300     0.13500
C2319       C  0.70106337  0.71592988  0.79444425    -0.24200
H2320       H  0.74116212  0.70514789  0.83404579     0.14800
H2321       H  0.68101355  0.74527397  0.90426373     0.14800
C2322       C  0.71811175  0.72910925  0.94366129    -0.24200
H2323       H  0.71289358  0.70243184  0.78438608     0.05000
H2324       H  0.71211243  0.73982462  0.78042657     0.08200
H2325       H  0.67456656  0.70094547  0.78851368     0.08200
H2326       H  0.74388626  0.74539641  0.95135659     0.08200
H2327       H  0.70988566  0.70409258  0.95391671     0.08200
H2328       H  0.70308743  0.73837231  0.95569410     0.05000
C2329       C  0.63552495  0.79913449  0.64740538    -0.20800
C2330       C  0.64354619  0.81745801  0.67807594    -0.07400
C2331       C  0.66604633  0.85185514  0.67647034     0.13500
C2332       C  0.68177780  0.86636485  0.64514397    -0.20900
C2333       C  0.67544336  0.84765755  0.61504820    -0.07400
C2334       C  0.65114307  0.81380513  0.61590831     0.13500
C2335       C  0.64305757  0.79263876  0.58424340    -0.24200
H2336       H  0.61860695  0.77277524  0.64853060     0.14800
H2337       H  0.69960497  0.89251985  0.64424231     0.14800
C2338       C  0.67356495  0.87351536  0.70772548    -0.24200
H2339       H  0.62468335  0.76646520  0.58983521     0.05000
H2340       H  0.66547222  0.79359574  0.57436125     0.08200
H2341       H  0.63278708  0.80157033  0.56395082     0.08200
H2342       H  0.68653710  0.86739042  0.72762001     0.08200
H2343       H  0.65048676  0.87021153  0.71867337     0.08200
H2344       H  0.68947841  0.90002158  0.70109825     0.05000
C2345       C  0.72274522  0.87372919  0.85552592    -0.20800
C2346       C  0.69113770  0.86420033  0.84394104    -0.07400
C2347       C  0.67493619  0.87996494  0.85764946     0.13500
C2348       C  0.68787766  0.89991641  0.88682480    -0.20900
C2349       C  0.71659013  0.90439863  0.90220381    -0.07400
C2350       C  0.73580630  0.89402137  0.88458992     0.13500
C2351       C  0.76954886  0.90362500  0.89714402    -0.24200
H2352       H  0.73568830  0.86250094  0.84435579     0.14800
H2353       H  0.67351819  0.90870915  0.89980659     0.14800
C2354       C  0.64262319  0.87388479  0.84374999    -0.24200
H2355       H  0.78076156  0.89239215  0.88121229     0.05000
H2356       H  0.76899116  0.89589205  0.92430886     0.08200
H2357       H  0.78536554  0.93079604  0.89540740     0.08200
H2358       H  0.62336293  0.86140559  0.86369349     0.08200
H2359       H  0.63503900  0.85847829  0.82017180     0.08200
H2360       H  0.64463264  0.89781449  0.83686935     0.05000
C2361       C  0.27918104  0.47722047  0.79515627    -0.20800
C2362       C  0.25629210  0.46714179  0.82215113    -0.07400
C2363       C  0.26837294  0.47508068  0.85659808     0.13500
C2364       C  0.30188854  0.48810773  0.86299089    -0.20900
C2365       C  0.32384895  0.49349114  0.83621994    -0.07400
C2366       C  0.31271217  0.49043926  0.80166521     0.13500
C2367       C  0.33582995  0.50068044  0.77139193    -0.24200
H2368       H  0.27072289  0.47317119  0.76865884     0.14800
H2369       H  0.31041267  0.49132063  0.88945653     0.14800
C2370       C  0.24651311  0.46923722  0.88723946    -0.24200
H2371       H  0.32347296  0.50034576  0.74686194     0.05000
H2372       H  0.34534211  0.48364751  0.76810430     0.08200
H2373       H  0.35645648  0.52620133  0.77527338     0.08200
H2374       H  0.23004668  0.44241211  0.89160468     0.08200
H2375       H  0.23206017  0.48157137  0.88293234     0.08200
H2376       H  0.26077293  0.47941555  0.91136580     0.05000
C2377       C  0.30335697  0.36373339  0.97016869    -0.20800
C2378       C  0.28277659  0.37235109  0.98763345    -0.07400
C2379       C  0.28645065  0.40381656  0.98169413     0.13500
C2380       C  0.31016926  0.42539518  0.95801059    -0.20900
C2381       C  0.32926227  0.41572733  0.93946520    -0.07400
C2382       C  0.32608602  0.38476418  0.94578848     0.13500
C2383       C  0.34660711  0.37382339  0.92673087    -0.24200
H2384       H  0.30042530  0.33952371  0.97407377     0.14800
H2385       H  0.31326407  0.44956922  0.95321478     0.14800
C2386       C  0.27736118  0.41415262  0.51057688    -0.24200
H2387       H  0.34144634  0.34906791  0.93537898     0.05000
H2388       H  0.37293756  0.39160767  0.93123052     0.08200
H2389       H  0.34135194  0.37249753  0.89867340     0.08200
H2390       H  0.28060559  0.40938250  0.53798779     0.08200
H2391       H  0.25092580  0.40173331  0.50439397     0.08200
H2392       H  0.28754792  0.44110052  0.50726515     0.05000
C2393       C  0.50221747  0.64256745  0.82036886    -0.20800
C2394       C  0.53420132  0.65974873  0.83365359    -0.07400
C2395       C  0.54419068  0.64303963  0.85715063     0.13500
C2396       C  0.52215545  0.61014511  0.86626812    -0.20900
C2397       C  0.49017109  0.59338413  0.85351199    -0.07400
C2398       C  0.48004430  0.60976791  0.83014789     0.13500
C2399       C  0.44631674  0.59247988  0.81443644    -0.24200
H2400       H  0.49439153  0.65491421  0.80231918     0.14800
H2401       H  0.52984734  0.59741759  0.88399090     0.14800
C2402       C  0.57804411  0.65902912  0.87269509    -0.24200
H2403       H  0.44318108  0.60835101  0.79528265     0.05000
H2404       H  0.42761710  0.58588269  0.83481894     0.08200
H2405       H  0.44196675  0.56979209  0.80103748     0.08200
H2406       H  0.58205933  0.67965002  0.88970756     0.08200
H2407       H  0.59679648  0.66822859  0.85207920     0.08200
H2408       H  0.58164884  0.64148340  0.88880373     0.05000
C2409       C  0.43476543  0.35064563  0.80035729    -0.20800
C2410       C  0.40866595  0.33491885  0.77691872    -0.07400
C2411       C  0.38356031  0.34265298  0.77713891     0.13500
C2412       C  0.38578162  0.36673889  0.79990857    -0.20900
C2413       C  0.41310111  0.38435027  0.82156160    -0.07400
C2414       C  0.43772144  0.37584968  0.82212848     0.13500
C2415       C  0.46693503  0.39302360  0.84562285    -0.24200
H2416       H  0.45363853  0.34410272  0.80064196     0.14800
H2417       H  0.36688635  0.37326039  0.79921399     0.14800
C2418       C  0.35430477  0.32550767  0.75359906    -0.24200
H2419       H  0.48267549  0.38184340  0.84418933     0.05000
H2420       H  0.45868165  0.39117663  0.87274051     0.08200
H2421       H  0.48213534  0.41935080  0.83814322     0.08200
H2422       H  0.34187674  0.29842874  0.75778610     0.08200
H2423       H  0.36207447  0.33131354  0.72625926     0.08200
H2424       H  0.33626851  0.33347857  0.75845952     0.05000
C2425       C  0.69079106  0.51731479  0.66006337    -0.20800
C2426       C  0.67741697  0.53722424  0.66801498    -0.07400
C2427       C  0.69693065  0.56713481  0.68617049     0.13500
C2428       C  0.72852834  0.57568750  0.69633650    -0.20900
C2429       C  0.74198282  0.55594572  0.68851700    -0.07400
C2430       C  0.72286838  0.52631068  0.67001970     0.13500
C2431       C  0.73642284  0.50476230  0.65953651    -0.24200
H2432       H  0.67607848  0.49459826  0.64601489     0.14800
H2433       H  0.74317728  0.59852742  0.71024211     0.14800
C2434       C  0.68557948  0.59126414  0.69390345    -0.24200
H2435       H  0.71856887  0.48333751  0.64403656     0.05000
H2436       H  0.74246857  0.49502697  0.68282674     0.08200
H2437       H  0.75873981  0.51923850  0.64365187     0.08200
H2438       H  0.66542147  0.58056317  0.71302478     0.08200
H2439       H  0.67740952  0.59779981  0.66976619     0.08200
H2440       H  0.70538589  0.61456559  0.70513093     0.05000
C2441       C  0.68426119  0.63527794  0.50536986    -0.20800
C2442       C  0.71298564  0.65035970  0.52537665    -0.07400
C2443       C  0.71125077  0.64398257  0.56121267     0.13500
C2444       C  0.68127321  0.62044308  0.57540156    -0.20900
C2445       C  0.65328042  0.60378459  0.55476619    -0.07400
C2446       C  0.65429915  0.61199999  0.51972828     0.13500
C2447       C  0.62443575  0.59466123  0.49710547    -0.24200
H2448       H  0.68562681  0.64025199  0.47790603     0.14800
H2449       H  0.67991128  0.61381916  0.60245186     0.14800
C2450       C  0.74097627  0.66010361  0.58420592    -0.24200
H2451       H  0.62983715  0.60361621  0.46999834     0.05000
H2452       H  0.60507593  0.59915781  0.50689611     0.08200
H2453       H  0.61516495  0.56772391  0.49718670     0.08200
H2454       H  0.75132232  0.68720969  0.58411816     0.08200
H2455       H  0.75972279  0.65442063  0.57507909     0.08200
H2456       H  0.73492755  0.65134886  0.61133538     0.05000
C2457       C  0.50641125  0.35572602  0.64213538    -0.20800
C2458       C  0.49918321  0.34802533  0.67729877    -0.07400
C2459       C  0.51582176  0.37314396  0.70191726     0.13500
C2460       C  0.53647518  0.40562857  0.69058644    -0.20900
C2461       C  0.54058168  0.41417621  0.65523262    -0.07400
C2462       C  0.52667763  0.38835160  0.63066770     0.13500
C2463       C  0.53179102  0.39457027  0.59236474    -0.24200
H2464       H  0.49405361  0.33630207  0.62326473     0.14800
H2465       H  0.54789720  0.42476688  0.70985888     0.14800
C2466       C  0.50994059  0.36662039  0.74010733    -0.24200
H2467       H  0.52006573  0.37123102  0.57748844     0.05000
H2468       H  0.55832615  0.40771234  0.58641593     0.08200
H2469       H  0.52082908  0.40930984  0.58335452     0.08200
H2470       H  0.51646934  0.34800502  0.74832009     0.08200
H2471       H  0.48388337  0.35756316  0.74599706     0.08200
H2472       H  0.52485878  0.38922461  0.75557499     0.05000
C2473       C  0.63921105  0.68539208  0.69154363    -0.20800
C2474       C  0.62325532  0.68414887  0.72228097    -0.07400
C2475       C  0.60511177  0.65372175  0.73998040     0.13500
C2476       C  0.60060386  0.62481240  0.72480542    -0.20900
C2477       C  0.61311818  0.62536095  0.69199668    -0.07400
C2478       C  0.63428299  0.65627345  0.67597110     0.13500
C2479       C  0.65185427  0.65893033  0.64267685    -0.24200
H2480       H  0.65404371  0.70894931  0.67874287     0.14800
H2481       H  0.58523989  0.60140068  0.73765702     0.14800
C2482       C  0.59003719  0.65147210  0.77477171    -0.24200
H2483       H  0.66961789  0.68500888  0.63593001     0.05000
H2484       H  0.63432857  0.64849461  0.62094318     0.08200
H2485       H  0.66562686  0.64571271  0.64533588     0.08200
H2486       H  0.57031228  0.65743336  0.77234863     0.08200
H2487       H  0.60912067  0.66892884  0.79276899     0.08200
H2488       H  0.57903210  0.62631266  0.78609080     0.05000
C2489       C  0.51369566  0.47966038  0.00031180    -0.20800
C2490       C  0.51989637  0.50470367  0.52238454    -0.07400
C2491       C  0.51082166  0.52831171  0.51297590     0.13500
C2492       C  0.49207587  0.52345646  0.98395294    -0.20900
C2493       C  0.48355055  0.49682536  0.96182464    -0.07400
C2494       C  0.49490060  0.47468971  0.97009118     0.13500
C2495       C  0.48705339  0.44545522  0.94775567    -0.24200
H2496       H  0.51912230  0.46054541  0.50691002     0.14800
H2497       H  0.48436188  0.54099527  0.97763178     0.14800
C2498       C  0.52079880  0.55899958  0.53391118    -0.24200
H2499       H  0.49643018  0.43006847  0.95911422     0.05000
H2500       H  0.49861843  0.45394535  0.92203616     0.08200
H2501       H  0.46016758  0.42961723  0.94484275     0.08200
H2502       H  0.54768733  0.57281367  0.53759126     0.08200
H2503       H  0.50829184  0.55242884  0.55928431     0.08200
H2504       H  0.51409400  0.57589628  0.52091999     0.05000
C2505       C  0.46035545  0.52287039  0.73621680    -0.20800
C2506       C  0.44232822  0.48970314  0.74664154    -0.07400
C2507       C  0.44244890  0.46515684  0.72594793     0.13500
C2508       C  0.46364860  0.47481978  0.69763504    -0.20900
C2509       C  0.48523580  0.50829806  0.69040781    -0.07400
C2510       C  0.48228480  0.53261134  0.70857359     0.13500
C2511       C  0.50464897  0.56890489  0.70159608    -0.24200
H2512       H  0.45998645  0.54155339  0.75217280     0.14800
H2513       H  0.46595656  0.45631368  0.68338811     0.14800
C2514       C  0.42343563  0.42921869  0.73590382    -0.24200
H2515       H  0.49950807  0.58441184  0.71902021     0.05000
H2516       H  0.50133279  0.57475626  0.67462731     0.08200
H2517       H  0.53046476  0.57562683  0.70562349     0.08200
H2518       H  0.43202915  0.42566913  0.76133662     0.08200
H2519       H  0.39697996  0.42079872  0.73728092     0.08200
H2520       H  0.42668470  0.41346663  0.71696518     0.05000
loop_ 
_geom_bond_atom_site_label_1 
_geom_bond_atom_site_label_2 
_geom_bond_distance 
_geom_bond_site_symmetry_2 
_ccdc_geom_bond_type 
Fe1          O17   2.062       .  S
Fe1           O7   2.139       .  S
Fe1          O14   2.108       .  S
Fe1           O6   2.032       .  S
Fe1          O12   1.946       .  S
Fe2           O5   2.042       .  S
Fe2           O9   2.087       .  S
Fe2          O13   2.027       .  S
Fe2          O18   2.097       .  S
Fe2          O12   1.934       .  S
Fe3          O21   2.086       .  S
Fe3           O8   2.025       .  S
Fe3          O15   2.029       .  S
Fe3           O4   2.088       .  S
Fe3          O12   1.939       .  S
O4           C11   1.273       .  A
O5           C19   1.268       .  A
O6           C11   1.265       .  A
O7           C10   1.282       .  A
O8           C20   1.259       .  A
O9           C22   1.276       .  A
C10          O15   1.260       .  A
C10        C1230   1.496       .  S
C11        C1185   1.467       .  S
O13          C16   1.262       .  A
O14          C16   1.277       .  A
C16        C1166   1.485       .  S
O17          C22   1.274       .  A
O18          C20   1.275       .  A
C19          O21   1.273       .  A
C19        C1249   1.474       .  S
C20        C1217   1.479       .  S
C22        C1201   1.499       .  S
Fe23         O39   2.032       .  S
Fe23         O29   2.084       .  S
Fe23         O36   2.090       .  S
Fe23         O28   2.047       .  S
Fe23         O34   1.936       .  S
Fe24         O27   2.035       .  S
Fe24         O31   2.109       .  S
Fe24         O35   2.039       .  S
Fe24         O40   2.090       .  S
Fe24         O34   1.930       .  S
Fe25         O43   2.107       .  S
Fe25         O30   2.047       .  S
Fe25         O37   2.067       .  S
Fe25         O26   2.118       .  S
Fe25         O34   1.935       .  S
O26          C33   1.285       .  A
O27          C41   1.262       .  A
O28          C33   1.269       .  A
O29          C32   1.272       .  A
O30          C42   1.269       .  A
O31          C44   1.279       .  A
C32          O37   1.268       .  A
C32        C1137   1.485       .  S
C33        C1233   1.497       .  S
O35          C38   1.260       .  A
O36          C38   1.270       .  A
C38        C1153   1.480       .  S
O39          C44   1.269       .  A
O40          C42   1.277       .  A
C41          O43   1.278       .  A
C41        C1105   1.489       .  S
C42        C1121   1.473       .  S
C44        C1246   1.473       .  S
Fe45         O61   2.073       .  S
Fe45         O51   2.113       .  S
Fe45         O58   2.102       .  S
Fe45         O50   2.040       .  S
Fe45         O56   1.964       .  S
Fe46         O49   2.039       .  S
Fe46         O53   2.087       .  S
Fe46         O57   2.033       .  S
Fe46         O62   2.090       .  S
Fe46         O56   1.953       .  S
Fe47         O65   2.086       .  S
Fe47         O52   2.026       .  S
Fe47         O59   2.034       .  S
Fe47         O48   2.088       .  S
Fe47         O56   1.967       .  S
O48          C55   1.275       .  A
O49          C63   1.267       .  A
O50          C55   1.268       .  A
O51          C54   1.275       .  A
O52          C64   1.258       .  A
O53          C66   1.278       .  A
C54          O59   1.260       .  A
C54        C1070   1.489       .  S
C55        C1214   1.472       .  S
O57          C60   1.259       .  A
O58          C60   1.273       .  A
C60        C1134   1.496       .  S
O61          C66   1.275       .  A
O62          C64   1.272       .  A
C63          O65   1.272       .  A
C63        C1086   1.472       .  S
C64        C1057   1.489       .  S
C66        C1038   1.505       .  S
Fe67         O73   2.084       .  S
Fe67         O80   2.085   1_554  S
Fe67         O72   2.061       .  S
Fe67       O1343   2.049   1_554  S
Fe67         O78   1.944       .  S
Fe68         O79   2.038       .  S
Fe68         O84   2.077       .  S
Fe68       O1331   2.025   1_554  S
Fe68       O1335   2.097   1_554  S
Fe68         O78   1.940       .  S
Fe69         O87   2.105       .  S
Fe69         O74   2.040       .  S
Fe69         O81   2.050       .  S
Fe69         O70   2.103       .  S
Fe69         O78   1.945       .  S
O70          C77   1.280       .  A
O71       Fe1328   2.026       .  S
O71        C1345   1.264       .  A
O72          C77   1.272       .  A
O73          C76   1.270       .  A
O74          C86   1.263       .  A
O75       Fe1328   2.092       .  S
O75          C88   1.272       .  A
C76          O81   1.265       .  A
C76        C1006   1.479       .  S
C77        C1073   1.488       .  S
O79          C82   1.263   1_554  A
O80          C82   1.270       .  A
C82        C2282   1.474       .  S
O83       Fe1327   2.048       .  S
O83          C88   1.267       .  A
O84          C86   1.272       .  A
C85          O87   1.278       .  A
C85        O1331   1.264   1_554  A
C85         C974   1.482   1_564  S
C86         C990   1.462       .  S
C88        C1089   1.469       .  S
Fe89        O105   2.070       .  S
Fe89         O95   2.114       .  S
Fe89        O102   2.114       .  S
Fe89         O94   2.031       .  S
Fe89        O100   1.925       .  S
Fe90         O93   2.025       .  S
Fe90         O97   2.074       .  S
Fe90        O101   2.021       .  S
Fe90        O106   2.107       .  S
Fe90        O100   1.915       .  S
Fe91        O109   2.123   1_655  S
Fe91         O96   2.041       .  S
Fe91        O103   2.042       .  S
Fe91         O92   2.092       .  S
Fe91        O100   1.946       .  S
O92          C99   1.274       .  A
O93         C107   1.256       .  A
O94          C99   1.266       .  A
O95          C98   1.282       .  A
O96         C108   1.262       .  A
O97         C110   1.269       .  A
C98         O103   1.267       .  A
C98         C942   1.489       .  S
C99         C897   1.472       .  S
O101        C104   1.266       .  A
O102        C104   1.282       .  A
C104        C878   1.478       .  S
O105        C110   1.269       .  A
O106        C108   1.273       .  A
C107        O109   1.278   1_655  A
C107        C961   1.475   1_655  S
C108        C926   1.478   1_655  S
C110        C910   1.499       .  S
Fe111       O127   2.037       .  S
Fe111       O117   2.070       .  S
Fe111       O124   2.089       .  S
Fe111       O116   2.038       .  S
Fe111       O122   1.912       .  S
Fe112       O115   2.032       .  S
Fe112       O119   2.101       .  S
Fe112       O123   2.050       .  S
Fe112       O128   2.100       .  S
Fe112       O122   1.926       .  S
Fe113       O131   2.110       .  S
Fe113       O118   2.043       .  S
Fe113       O125   2.072       .  S
Fe113       O114   2.121       .  S
Fe113       O122   1.928       .  S
O114        C121   1.284       .  A
O115        C129   1.262       .  A
O116        C121   1.268       .  A
O117        C120   1.269       .  A
O118        C130   1.271       .  A
O119        C132   1.273       .  A
C120        O125   1.269       .  A
C120        C849   1.493       .  S
C121        C945   1.486       .  S
O123        C126   1.267       .  A
O124        C126   1.275       .  A
C126        C862   1.484   1_455  S
O127        C132   1.262       .  A
O128        C130   1.280       .  A
C129        O131   1.275       .  A
C129        C817   1.492       .  S
C130        C830   1.480       .  S
C132        C958   1.461       .  S
Fe133       O149   2.072       .  S
Fe133       O139   2.090       .  S
Fe133       O146   2.075       .  S
Fe133       O138   2.061       .  S
Fe133       O144   1.979       .  S
Fe134       O137   2.046       .  S
Fe134       O145   2.037       .  S
Fe134       O150   2.087       .  S
Fe134      O1401   2.079   1_554  S
Fe134      O1404   1.960   1_554  S
Fe135       O153   2.069       .  S
Fe135       O140   2.028       .  S
Fe135       O147   2.044       .  S
Fe135       O136   2.059       .  S
Fe135       O144   1.978       .  S
O136        C143   1.266       .  A
O137        C151   1.270       .  A
O138        C143   1.268       .  A
O139        C142   1.273       .  A
O140       C1412   1.260       .  A
O141      Fe1394   2.058       .  S
O141        C154   1.269       .  A
C142        O147   1.263       .  A
C142        C785   1.483       .  S
C143       C1054   1.466       .  S
O144      Fe1394   1.974       .  S
O145       C1408   1.265   1_554  A
O146        C148   1.271       .  A
C148       O1405   1.265       .  A
C148       C1009   1.485       .  S
O149        C154   1.270       .  A
O150        C152   1.269       .  A
C151       O1413   1.275   1_554  A
C151        C798   1.477       .  S
C152       O1400   1.259   1_554  A
C152       C1182   1.482       .  S
O153       C1411   1.270       .  A
C154        C766   1.491       .  S
Fe155       O171   2.040       .  S
Fe155       O161   2.075       .  S
Fe155       O168   2.087       .  S
Fe155       O160   2.048       .  S
Fe155       O166   1.929       .  S
Fe156       O159   2.034       .  S
Fe156       O163   2.108       .  S
Fe156       O167   2.034       .  S
Fe156       O172   2.091       .  S
Fe156       O166   1.922       .  S
Fe157       O175   2.111       .  S
Fe157       O162   2.048       .  S
Fe157       O169   2.064       .  S
Fe157       O158   2.114       .  S
Fe157       O166   1.933       .  S
O158        C165   1.282       .  A
O159        C173   1.264       .  A
O160        C165   1.269       .  A
O161        C164   1.272       .  A
O162        C174   1.269       .  A
O163        C176   1.278       .  A
C164        O169   1.269       .  A
C164       C1169   1.485       .  S
C165        C782   1.492       .  S
O167        C170   1.259       .  A
O168        C170   1.272       .  A
C170        C750   1.480       .  S
O171        C176   1.268       .  A
O172        C174   1.277       .  A
C173        O175   1.276       .  A
C173        C913   1.493       .  S
C174        C865   1.475       .  S
C176        C801   1.476       .  S
Fe177       O193   2.044       .  S
Fe177       O183   2.072       .  S
Fe177       O190   2.068       .  S
Fe177       O182   2.049       .  S
Fe177       O188   1.933       .  S
Fe178       O181   2.035       .  S
Fe178       O185   2.099       .  S
Fe178       O189   2.049       .  S
Fe178       O194   2.099       .  S
Fe178       O188   1.932       .  S
Fe179       O197   2.093       .  S
Fe179       O184   2.044       .  S
Fe179       O191   2.056       .  S
Fe179       O180   2.105       .  S
Fe179       O188   1.935       .  S
O180        C187   1.279       .  A
O181        C195   1.264       .  A
O182        C187   1.269       .  A
O183        C186   1.270       .  A
O184        C196   1.269       .  A
O185        C198   1.276       .  A
C186        O191   1.266       .  A
C186        C881   1.482       .  S
C187        C721   1.489       .  S
O189        C192   1.265       .  A
O190        C192   1.271       .  A
C192        C993   1.481       .  S
O193        C198   1.268       .  A
O194        C196   1.278       .  A
C195        O197   1.273       .  A
C195        C686   1.490       .  S
C196        C702   1.484       .  S
C198        C734   1.473       .  S
Fe199       O215   2.054       .  S
Fe199       O205   2.108       .  S
Fe199       O212   2.094       .  S
Fe199       O204   2.031       .  S
Fe199       O210   1.948       .  S
Fe200       O203   2.047       .  S
Fe200       O211   2.043       .  S
Fe200       O216   2.076       .  S
Fe200      O1467   2.064       .  S
Fe200      O1470   1.977   1_554  S
Fe201       O219   2.093       .  S
Fe201       O206   2.034       .  S
Fe201       O213   2.037       .  S
Fe201       O202   2.084       .  S
Fe201       O210   1.951       .  S
O202        C209   1.272       .  A
O203        C217   1.268       .  A
O204        C209   1.264       .  A
O205        C208   1.277       .  A
O206       C1478   1.262       .  A
O207      Fe1460   2.087       .  S
O207        C220   1.273       .  A
C208        O213   1.266       .  A
C208        C718   1.493       .  S
C209        C670   1.468       .  S
O210      Fe1460   1.939       .  S
O211       C1474   1.265   1_554  A
O212        C214   1.274       .  A
C214       O1471   1.265       .  A
C214        C654   1.484   1_655  S
O215        C220   1.271       .  A
O216        C218   1.267       .  A
C217       O1479   1.272   1_554  A
C217        C737   1.469       .  S
C218       O1466   1.258   1_554  A
C218        C894   1.470       .  S
O219       C1477   1.275       .  A
C220        C977   1.493       .  S
Fe221       O237   2.070       .  S
Fe221       O227   2.128       .  S
Fe221       O234   2.112       .  S
Fe221       O226   2.040       .  S
Fe221       O232   1.948       .  S
Fe222       O225   2.038       .  S
Fe222       O229   2.080       .  S
Fe222       O233   2.027       .  S
Fe222       O238   2.091       .  S
Fe222       O232   1.935       .  S
Fe223       O241   2.099       .  S
Fe223       O228   2.027       .  S
Fe223       O235   2.027       .  S
Fe223       O224   2.097       .  S
Fe223       O232   1.938       .  S
O224        C231   1.275       .  A
O225        C239   1.268       .  A
O226        C231   1.267       .  A
O227        C230   1.280       .  A
O228        C240   1.261       .  A
O229        C242   1.271       .  A
C230        O235   1.260       .  A
C230        C622   1.489       .  S
C231        C929   1.489       .  S
O233        C236   1.264       .  A
O234        C236   1.279       .  A
C236        C846   1.479       .  S
O237        C242   1.274       .  A
O238        C240   1.271       .  A
C239        O241   1.276       .  A
C239        C641   1.478       .  S
C240        C673   1.481       .  S
C242       C1102   1.499       .  S
Fe243       O249   2.079       .  S
Fe243       O256   2.092       .  S
Fe243       O248   2.059       .  S
Fe243      O1519   2.046   1_554  S
Fe243       O254   1.937       .  S
Fe244       O255   2.038       .  S
Fe244       O260   2.103       .  S
Fe244      O1507   2.029   1_554  S
Fe244      O1511   2.110   1_554  S
Fe244       O254   1.924       .  S
Fe245       O263   2.108       .  S
Fe245       O250   2.060       .  S
Fe245       O257   2.064       .  S
Fe245       O246   2.102       .  S
Fe245       O254   1.935       .  S
O246        C253   1.281       .  A
O247      Fe1504   2.029       .  S
O247       C1521   1.261       .  A
O248        C253   1.270       .  A
O249        C252   1.272       .  A
O250        C262   1.270       .  A
O251      Fe1504   2.103       .  S
O251        C264   1.276       .  A
C252        O257   1.270       .  A
C252        C657   1.477       .  S
C253        C625   1.489       .  S
O255        C258   1.264       .  A
O256        C258   1.272       .  A
C258       C2378   1.480   1_554  S
O259      Fe1503   2.042       .  S
O259        C264   1.267       .  A
O260        C262   1.277       .  A
C261        O263   1.278       .  A
C261       O1507   1.261   1_554  A
C261        C590   1.486       .  S
C262        C609   1.479       .  S
C264        C638   1.474       .  S
Fe265       O281   2.056       .  S
Fe265       O271   2.116       .  S
Fe265       O278   2.103       .  S
Fe265       O270   2.032       .  S
Fe265       O276   1.948       .  S
Fe266       O269   2.047       .  S
Fe266       O273   2.080       .  S
Fe266       O277   2.046       .  S
Fe266       O282   2.089       .  S
Fe266       O276   1.940       .  S
Fe267       O285   2.083       .  S
Fe267       O272   2.035       .  S
Fe267       O279   2.043       .  S
Fe267       O268   2.072       .  S
Fe267       O276   1.953       .  S
O268        C275   1.270       .  A
O269        C283   1.270       .  A
O270        C275   1.263       .  A
O271        C274   1.280       .  A
O272        C284   1.260       .  A
O273        C286   1.273       .  A
C274        O279   1.265       .  A
C274        C561   1.490       .  S
C275        C529   1.471       .  S
O277        C280   1.270       .  A
O278        C280   1.276       .  A
C280        C510   1.500       .  S
O281        C286   1.269       .  A
O282        C284   1.272       .  A
C283        O285   1.273       .  A
C283        C574   1.466       .  S
C284        C545   1.476       .  S
C286        C814   1.496       .  S
Fe287       O293   2.073       .  S
Fe287       O300   2.086       .  S
Fe287       O292   2.046       .  S
Fe287      O1563   2.042   1_554  S
Fe287       O298   1.934       .  S
Fe288       O299   2.038       .  S
Fe288       O304   2.093       .  S
Fe288      O1551   2.020   1_554  S
Fe288      O1555   2.101   1_554  S
Fe288       O298   1.922       .  S
Fe289       O307   2.128       .  S
Fe289       O294   2.033       .  S
Fe289       O301   2.055       .  S
Fe289       O290   2.130       .  S
Fe289       O298   1.939       .  S
O290        C297   1.287       .  A
O291      Fe1548   2.028       .  S
O291       C1565   1.258       .  A
O292        C297   1.271       .  A
O293        C296   1.268       .  A
O294        C306   1.265       .  A
O295      Fe1548   2.092       .  S
O295        C308   1.275       .  A
C296        O301   1.266       .  A
C296        C497   1.471       .  S
C297        C558   1.493       .  S
O299        C302   1.260       .  A
O300        C302   1.270       .  A
C302       C2093   1.473   1_554  S
O303      Fe1547   2.038       .  S
O303        C308   1.266       .  A
O304        C306   1.276       .  A
C305        O307   1.279       .  A
C305       O1551   1.260   1_554  A
C305        C769   1.500   1_454  S
C306        C753   1.464   1_455  S
C308        C577   1.474       .  S
Fe309       O325   2.051       .  S
Fe309       O315   2.122       .  S
Fe309       O322   2.112       .  S
Fe309       O314   2.033       .  S
Fe309       O320   1.949       .  S
Fe310       O313   2.044       .  S
Fe310       O317   2.072       .  S
Fe310       O321   2.036       .  S
Fe310       O326   2.086       .  S
Fe310       O320   1.948       .  S
Fe311       O329   2.088   1_545  S
Fe311       O316   2.025       .  S
Fe311       O323   2.035       .  S
Fe311       O312   2.076       .  S
Fe311       O320   1.955       .  S
O312        C319   1.269       .  A
O313        C327   1.267   1_545  A
O314        C319   1.262       .  A
O315        C318   1.282       .  A
O316        C328   1.259       .  A
O317        C330   1.270       .  A
C318        O323   1.267       .  A
C318        C462   1.499       .  S
C319        C449   1.474       .  S
O321        C324   1.265       .  A
O322        C324   1.280       .  A
C324        C430   1.495       .  S
O325        C330   1.266       .  A
O326        C328   1.272       .  A
C327        O329   1.272       .  A
C327        C481   1.468       .  S
C328        C526   1.469   1_545  S
C330        C689   1.487       .  S
Fe331       O347   2.035       .  S
Fe331       O337   2.080       .  S
Fe331       O344   2.092   1_565  S
Fe331       O336   2.055       .  S
Fe331       O342   1.936       .  S
Fe332       O335   2.033       .  S
Fe332       O339   2.100       .  S
Fe332       O343   2.041       .  S
Fe332       O348   2.088       .  S
Fe332       O342   1.926       .  S
Fe333       O351   2.117       .  S
Fe333       O338   2.048       .  S
Fe333       O345   2.074       .  S
Fe333       O334   2.120       .  S
Fe333       O342   1.937       .  S
O334        C341   1.283       .  A
O335        C349   1.261       .  A
O336        C341   1.273       .  A
O337        C340   1.271       .  A
O338        C350   1.270       .  A
O339        C352   1.278       .  A
C340        O345   1.271       .  A
C340        C513   1.482       .  S
C341        C465   1.499       .  S
O343        C346   1.260   1_565  A
O344        C346   1.271       .  A
C346        C705   1.476       .  S
O347        C352   1.268       .  A
O348        C350   1.277       .  A
C349        O351   1.277       .  A
C349       C1041   1.493       .  S
C350       C1025   1.472       .  S
C352        C478   1.477       .  S
Fe353       O369   2.046       .  S
Fe353       O359   2.089       .  S
Fe353       O366   2.102       .  S
Fe353       O358   2.053       .  S
Fe353       O364   1.936       .  S
Fe354       O357   2.028       .  S
Fe354       O361   2.102       .  S
Fe354       O365   2.044       .  S
Fe354       O370   2.097       .  S
Fe354       O364   1.930       .  S
Fe355       O373   2.112       .  S
Fe355       O360   2.039       .  S
Fe355       O367   2.063       .  S
Fe355       O356   2.124       .  S
Fe355       O364   1.945       .  S
O356        C363   1.285       .  A
O357        C371   1.263       .  A
O358        C363   1.271       .  A
O359        C362   1.273       .  A
O360        C372   1.266       .  A
O361        C374   1.278       .  A
C362        O367   1.266       .  A
C362        C433   1.487       .  S
C363        C401   1.499       .  S
O365        C368   1.264       .  A
O366        C368   1.273       .  A
C368        C606   1.501       .  S
O369        C374   1.269       .  A
O370        C372   1.278       .  A
C371        O373   1.277       .  A
C371       C1198   1.492       .  S
C372       C1150   1.470       .  S
C374        C417   1.476       .  S
Fe375       O391   2.084       .  S
Fe375       O381   2.122       .  S
Fe375       O388   2.110       .  S
Fe375       O380   2.052       .  S
Fe375       O386   1.957       .  S
Fe376       O379   2.032       .  S
Fe376       O387   2.028       .  S
Fe376       O392   2.083       .  S
Fe376      O1643   2.076       .  S
Fe376      O1646   1.938   1_554  S
Fe377       O395   2.091       .  S
Fe377       O382   2.031       .  S
Fe377       O389   2.034       .  S
Fe377       O378   2.074       .  S
Fe377       O386   1.956       .  S
O378        C385   1.271       .  A
O379        C393   1.267       .  A
O380        C385   1.268       .  A
O381        C384   1.281       .  A
O382       C1654   1.258       .  A
O383      Fe1636   2.059       .  S
O383        C396   1.265       .  A
C384        O389   1.262       .  A
C384        C398   1.495       .  S
C385        C542   1.477       .  S
O386      Fe1636   1.945       .  S
O387       C1650   1.267   1_554  A
O388        C390   1.277       .  A
C390       O1647   1.267       .  A
C390        C494   1.493   1_545  S
O391        C396   1.275       .  A
O392        C394   1.270       .  A
C393       O1655   1.280   1_554  A
C393        C414   1.475       .  S
C394       O1642   1.258   1_554  A
C394        C446   1.473       .  S
O395       C1653   1.275       .  A
C396        C593   1.501       .  S
C397        C398   1.404       .  A
C397        C402   1.411       .  A
C397        H404   1.084       .  S
C398        C399   1.422       .  A
C399        C400   1.408       .  A
C399        C406   1.510       .  S
C400        C401   1.404       .  A
C400        H405   1.084       .  S
C401        C402   1.423       .  A
C402        C403   1.508       .  S
C403        H407   1.111       .  S
C403        H408   1.110       .  S
C403        H409   1.110       .  S
C406        H410   1.108       .  S
C406        H411   1.110       .  S
C406        H412   1.111       .  S
C413        C414   1.402       .  A
C413        C418   1.401       .  A
C413        H420   1.085       .  S
C414        C415   1.417       .  A
C415        C416   1.403       .  A
C415       C1682   1.509       .  S
C416        C417   1.402       .  A
C416        H421   1.085       .  S
C417        C418   1.415       .  A
C418        C419   1.505       .  S
C419        H423   1.110       .  S
C419        H424   1.111       .  S
C419        H425   1.107       .  S
C422       C1675   1.508       .  S
C422        H426   1.109       .  S
C422        H427   1.110       .  S
C422        H428   1.111       .  S
C429        C430   1.406       .  A
C429        C434   1.410       .  A
C429        H436   1.084       .  S
C430        C431   1.424       .  A
C431        C432   1.403       .  A
C431        C438   1.510       .  S
C432        C433   1.400       .  A
C432        H437   1.084       .  S
C433        C434   1.417       .  A
C434        C435   1.507       .  S
C435        H439   1.111       .  S
C435        H440   1.110       .  S
C435        H441   1.108       .  S
C438        H442   1.110       .  S
C438        H443   1.108       .  S
C438        H444   1.111       .  S
C445        C446   1.400       .  A
C445        C450   1.398       .  A
C445        H452   1.084       .  S
C446        C447   1.418       .  A
C447        C448   1.404       .  A
C447        C454   1.509   1_554  S
C448        C449   1.401       .  A
C448        H453   1.084       .  S
C449        C450   1.418       .  A
C450        C451   1.510       .  S
C451        H455   1.111       .  S
C451        H456   1.109       .  S
C451        H457   1.109       .  S
C454        H459   1.111       .  S
C454        H460   1.111   1_545  S
C454       H1718   1.109       .  S
H458       C1714   1.109       .  S
C461        C462   1.411   1_565  A
C461       C1726   1.407       .  A
C461        H468   1.084       .  S
C462       C1723   1.415   1_554  A
C463        C464   1.412       .  A
C463       C1722   1.416       .  A
C463        C470   1.506       .  S
C464        C465   1.411   1_545  A
C464        H469   1.083       .  S
C465        C466   1.417       .  A
C466       C1721   1.405       .  A
C466       C1727   1.509       .  S
C467       C1726   1.508       .  S
C467        H471   1.111       .  S
C467       H1732   1.111   1_554  S
C467       H1733   1.109   1_554  S
C470        H474   1.110       .  S
C470        H475   1.110       .  S
C470        H476   1.111       .  S
H472       C1727   1.110       .  S
H473       C1727   1.109       .  S
C477        C478   1.405       .  A
C477        C482   1.403       .  A
C477        H484   1.084       .  S
C478        C479   1.419       .  A
C479        C480   1.400       .  A
C479        C486   1.511       .  S
C480        C481   1.400       .  A
C480        H485   1.085       .  S
C481        C482   1.409       .  A
C482        C483   1.506       .  S
C483        H487   1.110   1_565  S
C483        H488   1.109   1_565  S
C483        H489   1.110       .  S
C486        H490   1.108       .  S
C486        H491   1.110       .  S
C486        H492   1.111       .  S
C493        C494   1.408       .  A
C493       C1758   1.398       .  A
C493        H500   1.084       .  S
C494       C1755   1.418       .  A
C495        C496   1.405   1_556  A
C495       C1754   1.420   1_556  A
C495        C502   1.507       .  S
C496        C497   1.402       .  A
C496        H501   1.084   1_554  S
C497        C498   1.409       .  A
C498       C1753   1.397       .  A
C498        C499   1.510       .  S
C499        H503   1.111       .  S
C499        H504   1.108       .  S
C499        H505   1.111       .  S
C502        H507   1.110   1_565  S
C502        H508   1.111       .  S
C502       H1766   1.110       .  S
H506       C1762   1.110       .  S
C509        C510   1.410       .  A
C509        C514   1.401       .  A
C509        H516   1.083       .  S
C510        C511   1.422       .  A
C511        C512   1.410       .  A
C511        C518   1.507       .  S
C512        C513   1.403       .  A
C512        H517   1.084       .  S
C513        C514   1.412       .  A
C514        C515   1.510       .  S
C515        H519   1.111       .  S
C515        H520   1.109       .  S
C515        H521   1.110       .  S
C518        H522   1.111       .  S
C518        H523   1.110       .  S
C518        H524   1.110       .  S
C525        C526   1.399       .  A
C525        C530   1.397       .  A
C525        H532   1.085       .  S
C526        C527   1.417       .  A
C527        C528   1.401       .  A
C527        C534   1.510   1_565  S
C528        C529   1.400       .  A
C528        H533   1.084       .  S
C529        C530   1.419       .  A
C530        C531   1.510       .  S
C531        H535   1.111       .  S
C531        H536   1.109       .  S
C531        H537   1.111       .  S
C534        H538   1.108       .  S
C534        H539   1.108       .  S
C534        H540   1.111       .  S
C541        C542   1.402       .  A
C541        C546   1.405   1_545  A
C541        H548   1.084       .  S
C542        C543   1.418   1_545  A
C543        C544   1.400       .  A
C543        C550   1.510       .  S
C544        C545   1.401       .  A
C544        H549   1.084       .  S
C545        C546   1.418       .  A
C546        C547   1.509       .  S
C547        H551   1.111   1_565  S
C547        H552   1.109       .  S
C547        H553   1.111       .  S
C550        H554   1.109       .  S
C550        H555   1.111       .  S
C550        H556   1.111       .  S
C557        C558   1.404       .  A
C557        C562   1.409       .  A
C557        H564   1.084       .  S
C558        C559   1.421       .  A
C559        C560   1.408       .  A
C559        C566   1.508       .  S
C560        C561   1.402       .  A
C560        H565   1.084       .  S
C561        C562   1.419       .  A
C562        C563   1.509       .  S
C563        H567   1.111       .  S
C563        H568   1.108       .  S
C563        H569   1.111       .  S
C566        H570   1.109       .  S
C566        H571   1.109       .  S
C566        H572   1.111       .  S
C573        C574   1.401       .  A
C573        C578   1.400       .  A
C573        H580   1.085       .  S
C574        C575   1.409       .  A
C575        C576   1.401       .  A
C575        C582   1.507       .  S
C576        C577   1.405       .  A
C576        H581   1.084       .  S
C577        C578   1.418       .  A
C578        C579   1.511       .  S
C579        H583   1.110       .  S
C579        H584   1.111       .  S
C579        H585   1.108       .  S
C582        H586   1.109       .  S
C582        H587   1.110       .  S
C582        H588   1.111       .  S
C589        C590   1.402       .  A
C589       C1854   1.405       .  A
C589        H596   1.084       .  S
C590       C1851   1.419   1_554  A
C591        C592   1.405       .  A
C591       C1850   1.417       .  A
C591        C598   1.507       .  S
C592        C593   1.406       .  A
C592        H597   1.084       .  S
C593        C594   1.431       .  A
C594       C1849   1.405       .  A
C594       C1855   1.511       .  S
C595       C1854   1.510       .  S
C595        H599   1.111       .  S
C595        H601   1.110       .  S
C595       H1860   1.109       .  S
C598        H602   1.110       .  S
C598        H604   1.111       .  S
C598       H1863   1.109       .  S
H600       C1855   1.109       .  S
H603       C1858   1.110       .  S
C605        C606   1.413       .  A
C605        C610   1.407       .  A
C605        H612   1.083       .  S
C606        C607   1.424       .  A
C607        C608   1.407       .  A
C607        C614   1.508       .  S
C608        C609   1.400       .  A
C608        H613   1.084       .  S
C609        C610   1.408       .  A
C610        C611   1.507       .  S
C611        H615   1.111       .  S
C611        H616   1.110       .  S
C611        H617   1.111       .  S
C614        H618   1.110       .  S
C614        H619   1.109       .  S
C614        H620   1.110       .  S
C621        C622   1.404       .  A
C621        C626   1.415       .  A
C621        H628   1.084       .  S
C622        C623   1.422       .  A
C623        C624   1.398       .  A
C623        C630   1.512       .  S
C624        C625   1.399       .  A
C624        H629   1.085       .  S
C625        C626   1.420       .  A
C626        C627   1.506       .  S
C627        H631   1.111       .  S
C627        H632   1.109       .  S
C627        H633   1.111       .  S
C630        H634   1.107       .  S
C630        H635   1.109       .  S
C630        H636   1.111       .  S
C637        C638   1.405       .  A
C637        C642   1.404       .  A
C637        H644   1.084       .  S
C638        C639   1.412       .  A
C639        C640   1.402       .  A
C639        C646   1.506       .  S
C640        C641   1.405       .  A
C640        H645   1.084       .  S
C641        C642   1.413       .  A
C642        C643   1.507       .  S
C643        H647   1.111       .  S
C643        H648   1.110       .  S
C643        H649   1.108       .  S
C646        H650   1.110       .  S
C646        H651   1.108       .  S
C646        H652   1.111       .  S
C653        C658   1.406       .  A
C653       C1914   1.407   1_554  A
C653        H660   1.084       .  S
C654        C655   1.415       .  A
C654       C1913   1.407       .  A
C655        C656   1.406       .  A
C655        C662   1.507       .  S
C656       C1917   1.406       .  A
C656        H661   1.084       .  S
C657        C658   1.411       .  A
C657       C1916   1.404   1_554  A
C658        C659   1.506       .  S
C659        H663   1.111       .  S
C659        H664   1.111       .  S
C659        H665   1.109       .  S
C662        H666   1.110       .  S
C662        H667   1.111   1_455  S
C662        H668   1.111       .  S
C669        C670   1.404   1_455  A
C669        C674   1.400       .  A
C669        H676   1.085       .  S
C670        C671   1.406       .  A
C671        C672   1.402   1_655  A
C671        C678   1.507       .  S
C672        C673   1.412       .  A
C672        H677   1.084       .  S
C673        C674   1.415       .  A
C674        C675   1.509       .  S
C675        H679   1.111       .  S
C675        H680   1.110       .  S
C675        H681   1.108       .  S
C678        H682   1.110       .  S
C678        H683   1.110       .  S
C678        H684   1.111       .  S
C685        C686   1.408       .  A
C685        C690   1.401       .  A
C685        H692   1.084       .  S
C686        C687   1.418       .  A
C687        C688   1.404       .  A
C687        C694   1.509       .  S
C688        C689   1.407       .  A
C688        H693   1.084       .  S
C689        C690   1.416       .  A
C690        C691   1.510       .  S
C691        H695   1.111       .  S
C691        H696   1.110       .  S
C691        H697   1.111       .  S
C694        H698   1.110       .  S
C694        H699   1.110       .  S
C694        H700   1.111       .  S
C701        C702   1.405       .  A
C701        C706   1.402       .  A
C701        H708   1.083       .  S
C702        C703   1.417       .  A
C703        C704   1.403       .  A
C703        C710   1.507       .  S
C704        C705   1.404       .  A
C704        H709   1.085       .  S
C705        C706   1.412       .  A
C706        C707   1.505       .  S
C707        H711   1.111       .  S
C707        H712   1.110       .  S
C707        H713   1.108       .  S
C710        H714   1.109       .  S
C710        H715   1.107       .  S
C710        H716   1.110       .  S
C717        C718   1.408       .  A
C717        C722   1.403       .  A
C717        H724   1.084       .  S
C718        C719   1.417       .  A
C719        C720   1.408       .  A
C719        C726   1.507       .  S
C720        C721   1.407       .  A
C720        H725   1.084       .  S
C721        C722   1.414       .  A
C722        C723   1.508       .  S
C723        H727   1.111       .  S
C723        H728   1.109       .  S
C723        H729   1.109       .  S
C726        H730   1.110       .  S
C726        H731   1.110       .  S
C726        H732   1.111       .  S
C733        C734   1.403       .  A
C733        C738   1.403       .  A
C733        H740   1.084       .  S
C734        C735   1.415       .  A
C735        C736   1.402       .  A
C735        C742   1.509       .  S
C736        C737   1.401       .  A
C736        H741   1.084       .  S
C737        C738   1.412       .  A
C738       C1999   1.507       .  S
C739       C1998   1.508       .  S
C739        H743   1.111       .  S
C739        H744   1.108       .  S
C739        H745   1.110       .  S
C742        H746   1.109       .  S
C742        H747   1.110       .  S
C742        H748   1.111       .  S
C749        C750   1.404       .  A
C749        C754   1.399       .  A
C749        H756   1.084       .  S
C750        C751   1.425       .  A
C751        C752   1.400       .  A
C751        C758   1.510       .  S
C752        C753   1.394       .  A
C752        H757   1.085   1_655  S
C753        C754   1.409       .  A
C754        C755   1.504       .  S
C755        H759   1.111       .  S
C755        H760   1.110       .  S
C755        H761   1.110       .  S
C758        H762   1.110       .  S
C758        H763   1.110       .  S
C758        H764   1.111       .  S
C765        C770   1.411       .  A
C765       C2026   1.412   1_554  A
C765        H772   1.084       .  S
C766        C767   1.415       .  A
C766       C2025   1.409       .  A
C767        C768   1.403       .  A
C767        C774   1.509       .  S
C768       C2029   1.411       .  A
C768        H773   1.084       .  S
C769        C770   1.415   1_556  A
C769       C2028   1.413       .  A
C770        C771   1.506       .  S
C771        H775   1.111       .  S
C771        H776   1.110   1_655  S
C771        H777   1.104       .  S
C774        H778   1.110       .  S
C774        H779   1.111       .  S
C774        H780   1.111       .  S
C781        C782   1.404       .  A
C781        C786   1.406       .  A
C781        H788   1.084       .  S
C782        C783   1.422       .  A
C783        C784   1.407       .  A
C783        C790   1.508       .  S
C784        C785   1.401       .  A
C784        H789   1.084       .  S
C785        C786   1.417       .  A
C786        C787   1.509       .  S
C787        H791   1.111       .  S
C787        H792   1.108       .  S
C787        H793   1.110       .  S
C790        H794   1.111       .  S
C790        H795   1.110       .  S
C790        H796   1.111       .  S
C797        C798   1.404       .  A
C797        C802   1.403       .  A
C797        H804   1.085       .  S
C798        C799   1.414       .  A
C799        C800   1.403       .  A
C799        C806   1.508       .  S
C800        C801   1.404       .  A
C800        H805   1.085       .  S
C801        C802   1.413       .  A
C802        C803   1.506       .  S
C803        H807   1.111       .  S
C803        H808   1.110       .  S
C803        H809   1.107       .  S
C806        H811   1.109       .  S
C806        H812   1.111       .  S
C806       H2070   1.110   1_554  S
H810       C2066   1.110       .  S
C813        C814   1.411       .  A
C813        C818   1.406       .  A
C813        H820   1.083       .  S
C814        C815   1.418       .  A
C815        C816   1.402       .  A
C815        C822   1.509       .  S
C816        C817   1.409       .  A
C816        H821   1.084       .  S
C817        C818   1.416       .  A
C818        C819   1.509       .  S
C819        H823   1.111       .  S
C819        H824   1.110       .  S
C819        H825   1.109       .  S
C822        H826   1.110       .  S
C822        H827   1.110       .  S
C822        H828   1.111       .  S
C829        C830   1.407       .  A
C829        C834   1.404       .  A
C829        H836   1.084       .  S
C830        C831   1.415       .  A
C831        C832   1.399       .  A
C831        C838   1.508       .  S
C832        C833   1.404       .  A
C832        H837   1.085       .  S
C833       C1562   1.474       .  S
C833        C834   1.412       .  A
C834        C835   1.507       .  S
C835        H839   1.111       .  S
C835        H840   1.109       .  S
C835       H2101   1.110       .  S
C838        H842   1.105       .  S
C838        H843   1.110       .  S
C838        H844   1.110       .  S
H841       C2095   1.110       .  S
C845        C846   1.402       .  A
C845        C850   1.409       .  A
C845        H852   1.084       .  S
C846        C847   1.415       .  A
C847        C848   1.399       .  A
C847        C854   1.512       .  S
C848        C849   1.407       .  A
C848        H853   1.084       .  S
C849        C850   1.422       .  A
C850        C851   1.507       .  S
C851        H855   1.111       .  S
C851        H856   1.110       .  S
C851        H857   1.111       .  S
C854        H858   1.109       .  S
C854        H859   1.111       .  S
C854        H860   1.111       .  S
C861        C862   1.405       .  A
C861        C866   1.396       .  A
C861        H868   1.082       .  S
C862        C863   1.416       .  A
C863        C864   1.407       .  A
C863        C870   1.508       .  S
C864        C865   1.406       .  A
C864        H869   1.085       .  S
C865        C866   1.414       .  A
C866        C867   1.510       .  S
C867        H871   1.111       .  S
C867        H872   1.103       .  S
C867        H873   1.110       .  S
C870        H874   1.109       .  S
C870        H875   1.110       .  S
C870        H876   1.111       .  S
C877        C878   1.403       .  A
C877        C882   1.406       .  A
C877        H884   1.084       .  S
C878        C879   1.418       .  A
C879        C880   1.398       .  A
C879        C886   1.512       .  S
C880        C881   1.402       .  A
C880        H885   1.084       .  S
C881        C882   1.419       .  A
C882        C883   1.508       .  S
C883        H887   1.111       .  S
C883        H888   1.110       .  S
C883        H889   1.110       .  S
C886        H890   1.109       .  S
C886        H891   1.110       .  S
C886        H892   1.111       .  S
C893        C894   1.408       .  A
C893        C898   1.404       .  A
C893        H900   1.085   1_554  S
C894        C895   1.410       .  A
C895        C896   1.398       .  A
C895        C902   1.509       .  S
C896        C897   1.406       .  A
C896        H901   1.084       .  S
C897        C898   1.409       .  A
C898        C899   1.506       .  S
C899        H903   1.111   1_654  S
C899        H904   1.110   1_655  S
C899        H905   1.111   1_554  S
C902        H906   1.110       .  S
C902        H907   1.111       .  S
C902        H908   1.111       .  S
C909        C910   1.412       .  A
C909        C914   1.406       .  A
C909        H916   1.084       .  S
C910        C911   1.418       .  A
C911        C912   1.405       .  A
C911        C918   1.508       .  S
C912        C913   1.409       .  A
C912        H917   1.084       .  S
C913        C914   1.415       .  A
C914        C915   1.509       .  S
C915        H919   1.111       .  S
C915        H920   1.110       .  S
C915        H921   1.108       .  S
C918        H922   1.110       .  S
C918        H923   1.110       .  S
C918        H924   1.111       .  S
C925        C926   1.405       .  A
C925        C930   1.407       .  A
C925        H932   1.084       .  S
C926        C927   1.412       .  A
C927        C928   1.400       .  A
C927        C934   1.508       .  S
C928        C929   1.408       .  A
C928        H933   1.084       .  S
C929        C930   1.416       .  A
C930        C931   1.505       .  S
C931        H935   1.111       .  S
C931        H936   1.110       .  S
C931        H937   1.109       .  S
C934        H938   1.109       .  S
C934        H939   1.109       .  S
C934        H940   1.111       .  S
C941        C942   1.404   1_556  A
C941       C2206   1.406       .  A
C941        H948   1.084       .  S
C942        C943   1.420   1_655  A
C943       C2204   1.406   1_554  A
C943        C950   1.509       .  S
C944        C945   1.402       .  A
C944       C2203   1.405   1_455  A
C944        H949   1.084       .  S
C945        C946   1.420   1_455  A
C946       C2201   1.405       .  A
C946        C947   1.509       .  S
C947        H951   1.111       .  S
C947        H952   1.110       .  S
C947        H953   1.110       .  S
C950        H954   1.108       .  S
C950        H955   1.110   1_455  S
C950        H956   1.111       .  S
C957        C958   1.392       .  A
C957        C962   1.383   1_455  A
C957        H964   1.085       .  S
C958        C959   1.408       .  A
C959        C960   1.413       .  A
C959        C966   1.503       .  S
C960        C961   1.410       .  A
C960        H965   1.083       .  S
C961        C962   1.422   1_455  A
C962        C963   1.515       .  S
C963        H967   1.111       .  S
C963        H968   1.107       .  S
C963        H969   1.109       .  S
C966        H970   1.110       .  S
C966        H971   1.110       .  S
C966        H972   1.111       .  S
C973        C978   1.407       .  A
C973       C2234   1.400       .  A
C973        H980   1.084       .  S
C974       C2233   1.402   1_556  A
C974       C2235   1.417       .  A
C975        C976   1.399       .  A
C975       C2234   1.414       .  A
C975       C2242   1.506   1_545  S
C976        C977   1.406       .  A
C976        H981   1.084       .  S
C977        C978   1.424       .  A
C978        C979   1.508       .  S
C979        H983   1.111       .  S
C979        H984   1.109       .  S
C979        H985   1.111       .  S
C982       C2235   1.507   1_565  S
C982        H986   1.111   1_565  S
C982        H988   1.110   1_565  S
C982       H2247   1.108       .  S
H987       C2242   1.109       .  S
C989        C990   1.401       .  A
C989        C994   1.405   1_565  A
C989        H996   1.084       .  S
C990        C991   1.406   1_565  A
C991        C992   1.394       .  A
C991        C998   1.509       .  S
C992        C993   1.409       .  A
C992        H997   1.084       .  S
C993        C994   1.419       .  A
C994        C995   1.508   1_545  S
C995        H999   1.111       .  S
C995       H1000   1.109   1_565  S
C995       H1001   1.110   1_565  S
C998       H1002   1.109       .  S
C998       H1003   1.109       .  S
C998       H1004   1.111       .  S
C1005      C1006   1.406       .  A
C1005      C1010   1.403       .  A
C1005      H1012   1.084       .  S
C1006      C2267   1.420   1_554  A
C1007      C1008   1.400       .  A
C1007      C2266   1.421       .  A
C1007      C1014   1.506       .  S
C1008      C1009   1.401       .  A
C1008      H1013   1.085       .  S
C1009      C2270   1.418       .  A
C1010      C2269   1.411   1_554  A
C1010      C1011   1.507       .  S
C1011      H1015   1.111       .  S
C1011      H1016   1.111       .  S
C1011      H1017   1.109       .  S
C1014      H1018   1.111       .  S
C1014      H1020   1.111       .  S
C1014      H2279   1.097       .  S
H1019      C2274   1.099       .  S
C1021      C1022   1.403       .  A
C1021      C1026   1.397       .  A
C1021      H1028   1.085       .  S
C1022      C1342   1.472       .  S
C1022      C1023   1.412       .  A
C1023      C1024   1.406       .  A
C1023      C1030   1.506       .  S
C1024      C1025   1.405       .  A
C1024      H1029   1.084       .  S
C1025      C1026   1.410       .  A
C1026      C1027   1.506       .  S
C1027      H1031   1.111       .  S
C1027      H1032   1.110       .  S
C1027      H1033   1.109       .  S
C1030      H1035   1.109       .  S
C1030      H1036   1.111       .  S
C1030      H2294   1.110       .  S
H1034      C2290   1.110       .  S
C1037      C1038   1.412       .  A
C1037      C1042   1.407       .  A
C1037      H1044   1.083       .  S
C1038      C1039   1.421       .  A
C1039      C1040   1.408       .  A
C1039      C1046   1.508       .  S
C1040      C1041   1.408       .  A
C1040      H1045   1.084       .  S
C1041      C1042   1.415       .  A
C1042      C1043   1.507       .  S
C1043      H1047   1.111       .  S
C1043      H1048   1.110       .  S
C1043      H1049   1.108       .  S
C1046      H1050   1.110       .  S
C1046      H1051   1.110       .  S
C1046      H1052   1.111       .  S
C1053      C1054   1.394       .  A
C1053      C1058   1.402       .  A
C1053      H1060   1.085       .  S
C1054      C1055   1.411       .  A
C1055      C1056   1.403       .  A
C1055      C1062   1.507       .  S
C1056      C1057   1.405       .  A
C1056      H1061   1.084       .  S
C1057      C1058   1.428       .  A
C1058      C1059   1.511       .  S
C1059      H1063   1.111       .  S
C1059      H1064   1.109       .  S
C1059      H1065   1.110       .  S
C1062      H1066   1.109       .  S
C1062      H1067   1.108       .  S
C1062      H1068   1.111       .  S
C1069      C1070   1.406       .  A
C1069      C1074   1.410       .  A
C1069      H1076   1.084       .  S
C1070      C1071   1.419       .  A
C1071      C1072   1.407       .  A
C1071      C1078   1.509       .  S
C1072      C1073   1.403       .  A
C1072      H1077   1.085       .  S
C1073      C1074   1.415       .  A
C1074      C1075   1.506       .  S
C1075      H1079   1.111       .  S
C1075      H1080   1.111       .  S
C1075      H1081   1.110       .  S
C1078      H1082   1.108       .  S
C1078      H1083   1.110       .  S
C1078      H1084   1.111       .  S
C1085      C1086   1.402       .  A
C1085      C1090   1.404       .  A
C1085      H1092   1.084       .  S
C1086      C1087   1.416       .  A
C1087      C1088   1.399       .  A
C1087      C1094   1.508       .  S
C1088      C1089   1.399       .  A
C1088      H1093   1.085       .  S
C1089      C1090   1.412       .  A
C1090      C1091   1.505       .  S
C1091      H1095   1.111       .  S
C1091      H1096   1.108       .  S
C1091      H1097   1.109       .  S
C1094      H1098   1.111       .  S
C1094      H1099   1.110       .  S
C1094      H1100   1.110       .  S
C1101      C1102   1.406       .  A
C1101      C1106   1.406       .  A
C1101      H1108   1.083       .  S
C1102      C1103   1.426       .  A
C1103      C1104   1.406       .  A
C1103      C1110   1.510       .  S
C1104      C1105   1.402       .  A
C1104      H1109   1.084       .  S
C1105      C1106   1.419       .  A
C1106      C1107   1.510       .  S
C1107      H1111   1.111       .  S
C1107      H1112   1.108       .  S
C1107      H1113   1.110       .  S
C1110      H1114   1.109       .  S
C1110      H1115   1.111       .  S
C1110      H1116   1.111       .  S
C1117      C1118   1.406       .  A
C1117      C1122   1.399       .  A
C1117      H1124   1.084       .  S
C1118      C1518   1.477       .  S
C1118      C1119   1.413       .  A
C1119      C1120   1.406       .  A
C1119      C2386   1.507       .  S
C1120      C1121   1.405       .  A
C1120      H1125   1.084       .  S
C1121      C1122   1.410       .  A
C1122      C1123   1.508       .  S
C1123      H1127   1.111       .  S
C1123      H1128   1.110       .  S
C1123      H1129   1.109       .  S
C1126      C2379   1.507   1_554  S
C1126      H1130   1.110       .  S
C1126      H1131   1.109   1_554  S
C1126      H1132   1.111   1_554  S
C1133      C1134   1.408       .  A
C1133      C1138   1.409       .  A
C1133      H1140   1.084       .  S
C1134      C1135   1.425       .  A
C1135      C1136   1.402       .  A
C1135      C1142   1.511       .  S
C1136      C1137   1.400       .  A
C1136      H1141   1.085       .  S
C1137      C1138   1.415       .  A
C1138      C1139   1.507       .  S
C1139      H1143   1.111       .  S
C1139      H1144   1.110       .  S
C1139      H1145   1.111       .  S
C1142      H1146   1.110       .  S
C1142      H1147   1.109       .  S
C1142      H1148   1.111       .  S
C1149      C1150   1.404       .  A
C1149      C1154   1.406       .  A
C1149      H1156   1.083       .  S
C1150      C1151   1.407       .  A
C1151      C1152   1.400       .  A
C1151      C1158   1.508       .  S
C1152      C1153   1.409       .  A
C1152      H1157   1.084       .  S
C1153      C1154   1.414       .  A
C1154      C1155   1.507       .  S
C1155      H1159   1.111       .  S
C1155      H1160   1.110       .  S
C1155      H1161   1.109       .  S
C1158      H1162   1.110       .  S
C1158      H1163   1.110       .  S
C1158      H1164   1.111       .  S
C1165      C1166   1.405       .  A
C1165      C1170   1.409       .  A
C1165      H1172   1.084       .  S
C1166      C1167   1.420       .  A
C1167      C1168   1.399       .  A
C1167      C1174   1.512       .  S
C1168      C1169   1.402       .  A
C1168      H1173   1.084       .  S
C1169      C1170   1.418       .  A
C1170      C1171   1.507       .  S
C1171      H1175   1.111       .  S
C1171      H1176   1.110       .  S
C1171      H1177   1.111       .  S
C1174      H1178   1.109       .  S
C1174      H1179   1.110       .  S
C1174      H1180   1.111       .  S
C1181      C1182   1.411       .  A
C1181      C1186   1.400       .  A
C1181      H1188   1.082   1_554  S
C1182      C1183   1.415       .  A
C1183      C1184   1.401       .  A
C1183      C1190   1.508       .  S
C1184      C1185   1.404       .  A
C1184      H1189   1.084       .  S
C1185      C1186   1.404       .  A
C1186      C1187   1.507       .  S
C1187      H1191   1.111   1_554  S
C1187      H1192   1.110       .  S
C1187      H1193   1.111   1_554  S
C1190      H1194   1.110       .  S
C1190      H1195   1.109       .  S
C1190      H1196   1.111       .  S
C1197      C1198   1.409       .  A
C1197      C1202   1.404       .  A
C1197      H1204   1.084       .  S
C1198      C1199   1.414       .  A
C1199      C1200   1.407       .  A
C1199      C1206   1.507       .  S
C1200      C1201   1.412       .  A
C1200      H1205   1.083       .  S
C1201      C1202   1.418       .  A
C1202      C1203   1.509       .  S
C1203      H1207   1.111       .  S
C1203      H1208   1.110       .  S
C1203      H1209   1.110       .  S
C1206      H1210   1.110       .  S
C1206      H1211   1.109       .  S
C1206      H1212   1.111       .  S
C1213      C1214   1.398       .  A
C1213      C1218   1.404       .  A
C1213      H1220   1.084       .  S
C1214      C1215   1.415       .  A
C1215      C1216   1.399       .  A
C1215      C1222   1.507       .  S
C1216      C1217   1.400       .  A
C1216      H1221   1.084       .  S
C1217      C1218   1.423       .  A
C1218      C1219   1.510       .  S
C1219      H1223   1.111       .  S
C1219      H1224   1.108       .  S
C1219      H1225   1.110       .  S
C1222      H1226   1.108       .  S
C1222      H1227   1.110       .  S
C1222      H1228   1.111       .  S
C1229      C1234   1.414       .  A
C1229      C2490   1.402       .  A
C1229      H2496   1.084       .  S
C1230      C1231   1.424       .  A
C1230      C2489   1.403       .  A
C1231      C2492   1.402   1_554  A
C1231      C1238   1.512       .  S
C1232      C1233   1.401       .  A
C1232      C2491   1.401       .  A
C1232      H1237   1.084       .  S
C1233      C1234   1.425       .  A
C1234      C1235   1.508       .  S
C1235      H1239   1.111       .  S
C1235      H1240   1.110       .  S
C1235      H1241   1.110       .  S
H1236      C2489   1.084       .  S
C1238      H1242   1.110       .  S
C1238      H1243   1.109       .  S
C1238      H1244   1.111       .  S
C1245      C1246   1.404       .  A
C1245      C1250   1.401       .  A
C1245      H1252   1.085       .  S
C1246      C1247   1.413       .  A
C1247      C1248   1.402       .  A
C1247      C1254   1.505       .  S
C1248      C1249   1.404       .  A
C1248      H1253   1.084       .  S
C1249      C1250   1.413       .  A
C1250      C1251   1.508       .  S
C1251      H1255   1.111       .  S
C1251      H1256   1.110       .  S
C1251      H1257   1.111       .  S
C1254      H1258   1.106       .  S
C1254      H1259   1.110       .  S
C1254      H1260   1.111       .  S
Fe1261     O1277   2.066       .  S
Fe1261     O1267   2.134       .  S
Fe1261     O1274   2.113       .  S
Fe1261     O1266   2.030       .  S
Fe1261     O1272   1.944       .  S
Fe1262     O1265   2.036       .  S
Fe1262     O1269   2.080       .  S
Fe1262     O1273   2.021       .  S
Fe1262     O1278   2.096       .  S
Fe1262     O1272   1.925       .  S
Fe1263     O1281   2.086       .  S
Fe1263     O1268   2.034       .  S
Fe1263     O1275   2.029       .  S
Fe1263     O1264   2.080       .  S
Fe1263     O1272   1.938       .  S
O1264      C1271   1.271       .  A
O1265      C1279   1.266       .  A
O1266      C1271   1.265       .  A
O1267      C1270   1.281       .  A
O1268      C1280   1.261       .  A
O1269      C1282   1.275       .  A
C1270      O1275   1.260       .  A
C1270      C2490   1.492       .  S
C1271      C2445   1.456       .  S
O1273      C1276   1.262       .  A
O1274      C1276   1.278       .  A
C1276      C2426   1.487       .  S
O1277      C1282   1.273       .  A
O1278      C1280   1.275       .  A
C1279      O1281   1.272       .  A
C1279      C2509   1.470       .  S
C1280      C2477   1.481       .  S
C1282      C2461   1.498       .  S
Fe1283     O1299   2.032       .  S
Fe1283     O1289   2.093       .  S
Fe1283     O1296   2.101       .  S
Fe1283     O1288   2.054       .  S
Fe1283     O1294   1.934       .  S
Fe1284     O1287   2.034       .  S
Fe1284     O1291   2.099       .  S
Fe1284     O1295   2.037       .  S
Fe1284     O1300   2.097       .  S
Fe1284     O1294   1.928       .  S
Fe1285     O1303   2.112       .  S
Fe1285     O1290   2.039       .  S
Fe1285     O1297   2.057       .  S
Fe1285     O1286   2.121       .  S
Fe1285     O1294   1.936       .  S
O1286      C1293   1.285       .  A
O1287      C1301   1.259       .  A
O1288      C1293   1.269       .  A
O1289      C1292   1.275       .  A
O1290      C1302   1.269       .  A
O1291      C1304   1.276       .  A
C1292      O1297   1.268       .  A
C1292      C2397   1.483       .  S
C1293      C2493   1.503       .  S
O1295      C1298   1.263       .  A
O1296      C1298   1.274       .  A
C1298      C2413   1.483       .  S
O1299      C1304   1.267       .  A
O1300      C1302   1.279       .  A
C1301      O1303   1.277       .  A
C1301      C2365   1.489       .  S
C1302      C2381   1.466       .  S
C1304      C2506   1.470       .  S
Fe1305     O1321   2.072       .  S
Fe1305     O1311   2.114       .  S
Fe1305     O1318   2.103       .  S
Fe1305     O1310   2.039       .  S
Fe1305     O1316   1.970       .  S
Fe1306     O1309   2.038       .  S
Fe1306     O1313   2.085       .  S
Fe1306     O1317   2.032       .  S
Fe1306     O1322   2.090       .  S
Fe1306     O1316   1.959       .  S
Fe1307     O1325   2.094       .  S
Fe1307     O1312   2.022       .  S
Fe1307     O1319   2.033       .  S
Fe1307     O1308   2.094       .  S
Fe1307     O1316   1.967       .  S
O1308      C1315   1.276       .  A
O1309      C1323   1.267       .  A
O1310      C1315   1.268       .  A
O1311      C1314   1.275       .  A
O1312      C1324   1.256       .  A
O1313      C1326   1.277       .  A
C1314      O1319   1.260       .  A
C1314      C2330   1.490       .  S
C1315      C2474   1.474       .  S
O1317      C1320   1.259       .  A
O1318      C1320   1.274       .  A
C1320      C2394   1.496       .  S
O1321      C1326   1.274       .  A
O1322      C1324   1.271       .  A
C1323      O1325   1.275       .  A
C1323      C2346   1.474       .  S
C1324      C2317   1.487       .  S
C1326      C2298   1.503       .  S
Fe1327     O1333   2.081       .  S
Fe1327     O1340   2.082       .  S
Fe1327     O1332   2.062       .  S
Fe1327     O1338   1.949       .  S
Fe1328     O1339   2.040       .  S
Fe1328     O1344   2.081       .  S
Fe1328     O1338   1.947       .  S
Fe1329     O1347   2.108       .  S
Fe1329     O1334   2.056       .  S
Fe1329     O1341   2.068       .  S
Fe1329     O1330   2.104       .  S
Fe1329     O1338   1.950       .  S
O1330      C1337   1.280       .  A
O1332      C1337   1.271       .  A
O1333      C1336   1.270       .  A
O1334      C1346   1.266       .  A
O1335      C1348   1.274       .  A
C1336      O1341   1.269       .  A
C1336      C2266   1.486       .  S
C1337      C2333   1.489       .  S
O1339      C1342   1.264       .  A
O1340      C1342   1.270       .  A
O1343      C1348   1.269       .  A
O1344      C1346   1.272       .  A
C1345      O1347   1.278       .  A
C1345      C2234   1.482   1_565  S
C1346      C2250   1.474   1_565  S
C1348      C2349   1.471       .  S
Fe1349     O1365   2.062       .  S
Fe1349     O1355   2.111       .  S
Fe1349     O1362   2.113       .  S
Fe1349     O1354   2.025       .  S
Fe1349     O1360   1.925       .  S
Fe1350     O1353   2.021       .  S
Fe1350     O1357   2.081       .  S
Fe1350     O1361   2.017       .  S
Fe1350     O1366   2.126       .  S
Fe1350     O1360   1.912       .  S
Fe1351     O1369   2.132   1_655  S
Fe1351     O1356   2.035       .  S
Fe1351     O1363   2.036       .  S
Fe1351     O1352   2.099       .  S
Fe1351     O1360   1.943       .  S
O1352      C1359   1.276       .  A
O1353      C1367   1.253       .  A
O1354      C1359   1.265       .  A
O1355      C1358   1.281       .  A
O1356      C1368   1.261       .  A
O1357      C1370   1.269       .  A
C1358      O1363   1.266       .  A
C1358      C2202   1.487       .  S
C1359      C2157   1.473       .  S
O1361      C1364   1.267       .  A
O1362      C1364   1.283       .  A
C1364      C2138   1.477       .  S
O1365      C1370   1.266       .  A
O1366      C1368   1.277       .  A
C1367      O1369   1.279   1_655  A
C1367      C2221   1.476   1_655  S
C1368      C2186   1.491   1_655  S
C1370      C2170   1.498       .  S
Fe1371     O1387   2.037       .  S
Fe1371     O1377   2.068       .  S
Fe1371     O1384   2.095   1_455  S
Fe1371     O1376   2.043       .  S
Fe1371     O1382   1.916       .  S
Fe1372     O1375   2.032       .  S
Fe1372     O1379   2.108       .  S
Fe1372     O1383   2.051       .  S
Fe1372     O1388   2.104       .  S
Fe1372     O1382   1.926       .  S
Fe1373     O1391   2.106       .  S
Fe1373     O1378   2.036       .  S
Fe1373     O1385   2.061       .  S
Fe1373     O1374   2.119       .  S
Fe1373     O1382   1.927       .  S
O1374      C1381   1.284       .  A
O1375      C1389   1.263       .  A
O1376      C1381   1.270       .  A
O1377      C1380   1.269       .  A
O1378      C1390   1.269       .  A
O1379      C1392   1.275       .  A
C1380      O1385   1.266       .  A
C1380      C2109   1.480       .  S
C1381      C2205   1.486       .  S
O1383      C1386   1.267   1_455  A
O1384      C1386   1.276       .  A
C1386      C2122   1.484       .  S
O1387      C1392   1.262       .  A
O1388      C1390   1.280       .  A
C1389      O1391   1.275       .  A
C1389      C2077   1.491       .  S
C1390      C2090   1.482       .  S
C1392      C2218   1.462       .  S
Fe1393     O1409   2.063       .  S
Fe1393     O1399   2.110       .  S
Fe1393     O1406   2.088       .  S
Fe1393     O1398   2.047       .  S
Fe1393     O1404   1.960       .  S
Fe1394     O1397   2.061       .  S
Fe1394     O1405   2.052       .  S
Fe1394     O1410   2.061       .  S
Fe1395     O1413   2.091       .  S
Fe1395     O1400   2.026       .  S
Fe1395     O1407   2.038       .  S
Fe1395     O1396   2.078       .  S
Fe1395     O1404   1.960       .  S
O1396      C1403   1.270       .  A
O1397      C1411   1.271       .  A
O1398      C1403   1.266       .  A
O1399      C1402   1.278       .  A
O1401      C1414   1.271       .  A
C1402      O1407   1.262       .  A
C1402      C2045   1.500       .  S
C1403      C2314   1.467       .  S
O1406      C1408   1.274       .  A
C1408      C2269   1.471       .  S
O1409      C1414   1.271       .  A
O1410      C1412   1.264       .  A
C1411      C2058   1.466       .  S
C1412      C2442   1.469       .  S
C1414      C2026   1.492       .  S
Fe1415     O1431   2.046       .  S
Fe1415     O1421   2.063       .  S
Fe1415     O1428   2.068       .  S
Fe1415     O1420   2.055       .  S
Fe1415     O1426   1.936       .  S
Fe1416     O1419   2.035       .  S
Fe1416     O1423   2.100       .  S
Fe1416     O1427   2.052       .  S
Fe1416     O1432   2.087       .  S
Fe1416     O1426   1.934       .  S
Fe1417     O1435   2.101       .  S
Fe1417     O1422   2.053       .  S
Fe1417     O1429   2.071       .  S
Fe1417     O1418   2.116       .  S
Fe1417     O1426   1.941       .  S
O1418      C1425   1.284       .  A
O1419      C1433   1.264       .  A
O1420      C1425   1.271       .  A
O1421      C1424   1.267       .  A
O1422      C1434   1.270       .  A
O1423      C1436   1.277       .  A
C1424      O1429   1.267       .  A
C1424      C2429   1.484       .  S
C1425      C2042   1.502       .  S
O1427      C1430   1.263       .  A
O1428      C1430   1.267       .  A
C1430      C2010   1.476       .  S
O1431      C1436   1.273       .  A
O1432      C1434   1.277       .  A
C1433      O1435   1.275       .  A
C1433      C2173   1.490       .  S
C1434      C2125   1.476       .  S
C1436      C2061   1.482       .  S
Fe1437     O1453   2.047       .  S
Fe1437     O1443   2.069       .  S
Fe1437     O1450   2.074       .  S
Fe1437     O1442   2.053       .  S
Fe1437     O1448   1.934       .  S
Fe1438     O1441   2.035       .  S
Fe1438     O1445   2.096       .  S
Fe1438     O1449   2.056       .  S
Fe1438     O1454   2.098       .  S
Fe1438     O1448   1.929       .  S
Fe1439     O1457   2.101       .  S
Fe1439     O1444   2.044       .  S
Fe1439     O1451   2.058       .  S
Fe1439     O1440   2.114       .  S
Fe1439     O1448   1.936       .  S
O1440      C1447   1.282       .  A
O1441      C1455   1.264       .  A
O1442      C1447   1.272       .  A
O1443      C1446   1.268       .  A
O1444      C1456   1.269       .  A
O1445      C1458   1.277       .  A
C1446      O1451   1.264       .  A
C1446      C2141   1.482       .  S
C1447      C1981   1.498       .  S
O1449      C1452   1.266       .  A
O1450      C1452   1.270       .  A
C1452      C2253   1.491       .  S
O1453      C1458   1.270       .  A
O1454      C1456   1.279       .  A
C1455      O1457   1.274       .  A
C1455      C1946   1.495       .  S
C1456      C1962   1.480       .  S
C1458      C1994   1.471       .  S
Fe1459     O1475   2.060       .  S
Fe1459     O1465   2.100       .  S
Fe1459     O1472   2.089       .  S
Fe1459     O1464   2.044       .  S
Fe1459     O1470   1.981       .  S
Fe1460     O1463   2.041       .  S
Fe1460     O1471   2.036       .  S
Fe1460     O1476   2.090       .  S
Fe1461     O1479   2.079       .  S
Fe1461     O1466   2.028       .  S
Fe1461     O1473   2.041       .  S
Fe1461     O1462   2.063       .  S
Fe1461     O1470   1.978       .  S
O1462      C1469   1.267       .  A
O1463      C1477   1.268       .  A
O1464      C1469   1.265       .  A
O1465      C1468   1.274       .  A
O1467      C1480   1.267   1_554  A
C1468      O1473   1.264       .  A
C1468      C1978   1.495       .  S
C1469      C1930   1.461       .  S
O1472      C1474   1.273       .  A
C1474      C1914   1.481   1_655  S
O1475      C1480   1.269       .  A
O1476      C1478   1.272       .  A
C1477      C1997   1.474       .  S
C1478      C2154   1.479       .  S
C1480      C2237   1.485       .  S
Fe1481     O1497   2.073       .  S
Fe1481     O1487   2.122       .  S
Fe1481     O1494   2.103       .  S
Fe1481     O1486   2.050       .  S
Fe1481     O1492   1.945       .  S
Fe1482     O1485   2.033       .  S
Fe1482     O1489   2.080       .  S
Fe1482     O1493   2.025       .  S
Fe1482     O1498   2.101       .  S
Fe1482     O1492   1.936       .  S
Fe1483     O1501   2.117       .  S
Fe1483     O1488   2.019       .  S
Fe1483     O1495   2.034       .  S
Fe1483     O1484   2.100       .  S
Fe1483     O1492   1.940       .  S
O1484      C1491   1.275       .  A
O1485      C1499   1.266       .  A
O1486      C1491   1.267       .  A
O1487      C1490   1.281       .  A
O1488      C1500   1.259       .  A
O1489      C1502   1.271       .  A
C1490      O1495   1.264       .  A
C1490      C1882   1.487       .  S
C1491      C2189   1.492       .  S
O1493      C1496   1.264       .  A
O1494      C1496   1.278       .  A
C1496      C2106   1.484       .  S
O1497      C1502   1.274       .  A
O1498      C1500   1.272       .  A
C1499      O1501   1.279       .  A
C1499      C1901   1.480       .  S
C1500      C1933   1.489       .  S
C1502      C2362   1.502       .  S
Fe1503     O1509   2.081       .  S
Fe1503     O1516   2.094       .  S
Fe1503     O1508   2.048       .  S
Fe1503     O1514   1.933       .  S
Fe1504     O1515   2.040       .  S
Fe1504     O1520   2.098       .  S
Fe1504     O1514   1.929       .  S
Fe1505     O1523   2.117       .  S
Fe1505     O1510   2.043       .  S
Fe1505     O1517   2.057       .  S
Fe1505     O1506   2.116       .  S
Fe1505     O1514   1.934       .  S
O1506      C1513   1.283       .  A
O1508      C1513   1.269       .  A
O1509      C1512   1.271       .  A
O1510      C1522   1.266       .  A
O1511      C1524   1.278       .  A
C1512      O1517   1.268       .  A
C1512      C1917   1.481       .  S
C1513      C1885   1.486       .  S
O1515      C1518   1.264       .  A
O1516      C1518   1.273       .  A
O1519      C1524   1.268       .  A
O1520      C1522   1.278       .  A
C1521      O1523   1.280       .  A
C1521      C1850   1.484       .  S
C1522      C1869   1.477       .  S
C1524      C1898   1.485       .  S
Fe1525     O1541   2.053       .  S
Fe1525     O1531   2.127       .  S
Fe1525     O1538   2.114       .  S
Fe1525     O1530   2.030       .  S
Fe1525     O1536   1.947       .  S
Fe1526     O1529   2.044       .  S
Fe1526     O1533   2.084       .  S
Fe1526     O1537   2.046       .  S
Fe1526     O1542   2.094       .  S
Fe1526     O1536   1.938       .  S
Fe1527     O1545   2.094       .  S
Fe1527     O1532   2.034       .  S
Fe1527     O1539   2.043       .  S
Fe1527     O1528   2.081       .  S
Fe1527     O1536   1.950       .  S
O1528      C1535   1.272       .  A
O1529      C1543   1.268       .  A
O1530      C1535   1.263       .  A
O1531      C1534   1.282       .  A
O1532      C1544   1.260       .  A
O1533      C1546   1.274       .  A
C1534      O1539   1.265       .  A
C1534      C1821   1.497       .  S
C1535      C1789   1.474       .  S
O1537      C1540   1.269       .  A
O1538      C1540   1.279       .  A
C1540      C1770   1.505       .  S
O1541      C1546   1.269       .  A
O1542      C1544   1.273       .  A
C1543      O1545   1.275       .  A
C1543      C1834   1.469       .  S
C1544      C1805   1.479       .  S
C1546      C2074   1.495       .  S
Fe1547     O1553   2.075       .  S
Fe1547     O1560   2.085       .  S
Fe1547     O1552   2.053       .  S
Fe1547     O1558   1.924       .  S
Fe1548     O1559   2.040       .  S
Fe1548     O1564   2.101       .  S
Fe1548     O1558   1.924       .  S
Fe1549     O1567   2.118       .  S
Fe1549     O1554   2.041       .  S
Fe1549     O1561   2.069       .  S
Fe1549     O1550   2.124       .  S
Fe1549     O1558   1.935       .  S
O1550      C1557   1.284       .  A
O1552      C1557   1.270       .  A
O1553      C1556   1.271       .  A
O1554      C1566   1.271       .  A
O1555      C1568   1.278       .  A
C1556      O1561   1.271       .  A
C1556      C1757   1.482       .  S
C1557      C1818   1.496       .  S
O1559      C1562   1.264       .  A
O1560      C1562   1.274       .  A
O1563      C1568   1.270       .  A
O1564      C1566   1.279       .  A
C1565      O1567   1.275       .  A
C1565      C2029   1.494   1_455  S
C1566      C2013   1.482   1_455  S
C1568      C1837   1.480       .  S
Fe1569     O1585   2.052       .  S
Fe1569     O1575   2.131       .  S
Fe1569     O1582   2.116       .  S
Fe1569     O1574   2.032       .  S
Fe1569     O1580   1.942       .  S
Fe1570     O1573   2.039       .  S
Fe1570     O1577   2.084       .  S
Fe1570     O1581   2.030       .  S
Fe1570     O1586   2.101       .  S
Fe1570     O1580   1.942       .  S
Fe1571     O1589   2.090   1_545  S
Fe1571     O1576   2.021       .  S
Fe1571     O1583   2.028       .  S
Fe1571     O1572   2.076       .  S
Fe1571     O1580   1.948       .  S
O1572      C1579   1.269       .  A
O1573      C1587   1.265   1_545  A
O1574      C1579   1.261       .  A
O1575      C1578   1.284       .  A
O1576      C1588   1.258       .  A
O1577      C1590   1.273       .  A
C1578      O1583   1.266       .  A
C1578      C1722   1.501       .  S
C1579      C1709   1.472       .  S
O1581      C1584   1.264       .  A
O1582      C1584   1.281       .  A
C1584      C1690   1.492       .  S
O1585      C1590   1.268       .  A
O1586      C1588   1.276       .  A
C1587      O1589   1.272       .  A
C1587      C1741   1.468       .  S
C1588      C1786   1.474   1_545  S
C1590      C1949   1.487       .  S
Fe1591     O1607   2.033       .  S
Fe1591     O1597   2.087       .  S
Fe1591     O1604   2.091   1_565  S
Fe1591     O1596   2.049       .  S
Fe1591     O1602   1.938       .  S
Fe1592     O1595   2.033       .  S
Fe1592     O1599   2.104       .  S
Fe1592     O1603   2.042       .  S
Fe1592     O1608   2.092       .  S
Fe1592     O1602   1.926       .  S
Fe1593     O1611   2.116       .  S
Fe1593     O1598   2.044       .  S
Fe1593     O1605   2.076       .  S
Fe1593     O1594   2.125       .  S
Fe1593     O1602   1.936       .  S
O1594      C1601   1.285       .  A
O1595      C1609   1.262       .  A
O1596      C1601   1.272       .  A
O1597      C1600   1.271       .  A
O1598      C1610   1.268       .  A
O1599      C1612   1.280       .  A
C1600      O1605   1.269       .  A
C1600      C1773   1.487       .  S
C1601      C1725   1.499       .  S
O1603      C1606   1.260   1_565  A
O1604      C1606   1.270       .  A
C1606      C1965   1.477       .  S
O1607      C1612   1.268       .  A
O1608      C1610   1.278       .  A
C1609      O1611   1.278       .  A
C1609      C2301   1.494       .  S
C1610      C2285   1.471       .  S
C1612      C1738   1.477       .  S
Fe1613     O1629   2.045       .  S
Fe1613     O1619   2.080       .  S
Fe1613     O1626   2.082       .  S
Fe1613     O1618   2.048       .  S
Fe1613     O1624   1.941       .  S
Fe1614     O1617   2.033       .  S
Fe1614     O1621   2.099       .  S
Fe1614     O1625   2.046       .  S
Fe1614     O1630   2.091       .  S
Fe1614     O1624   1.935       .  S
Fe1615     O1633   2.098       .  S
Fe1615     O1620   2.050       .  S
Fe1615     O1627   2.068       .  S
Fe1615     O1616   2.110       .  S
Fe1615     O1624   1.944       .  S
O1616      C1623   1.282       .  A
O1617      C1631   1.263       .  A
O1618      C1623   1.269       .  A
O1619      C1622   1.270       .  A
O1620      C1632   1.268       .  A
O1621      C1634   1.278       .  A
C1622      O1627   1.267       .  A
C1622      C1693   1.487       .  S
C1623      C1661   1.490       .  S
O1625      C1628   1.263       .  A
O1626      C1628   1.269       .  A
C1628      C1866   1.485       .  S
O1629      C1634   1.271       .  A
O1630      C1632   1.277       .  A
C1631      O1633   1.275       .  A
C1631      C2458   1.483       .  S
C1632      C2410   1.477       .  S
C1634      C1677   1.478       .  S
Fe1635     O1651   2.062       .  S
Fe1635     O1641   2.107       .  S
Fe1635     O1648   2.100       .  S
Fe1635     O1640   2.040       .  S
Fe1635     O1646   1.945       .  S
Fe1636     O1639   2.042       .  S
Fe1636     O1647   2.033       .  S
Fe1636     O1652   2.072       .  S
Fe1637     O1655   2.107       .  S
Fe1637     O1642   2.031       .  S
Fe1637     O1649   2.034       .  S
Fe1637     O1638   2.092       .  S
Fe1637     O1646   1.943       .  S
O1638      C1645   1.275       .  A
O1639      C1653   1.269       .  A
O1640      C1645   1.266       .  A
O1641      C1644   1.277       .  A
O1643      C1656   1.268   1_554  A
C1644      O1649   1.262       .  A
C1644      C1658   1.487       .  S
C1645      C1802   1.480       .  S
O1648      C1650   1.276       .  A
C1650      C1754   1.491   1_546  S
O1651      C1656   1.272       .  A
O1652      C1654   1.267       .  A
C1653      C1674   1.469       .  S
C1654      C1706   1.469       .  S
C1656      C1853   1.496       .  S
C1657      C1658   1.404       .  A
C1657      C1662   1.408       .  A
C1657      H1664   1.084       .  S
C1658      C1659   1.419       .  A
C1659      C1660   1.404       .  A
C1659      C1666   1.510       .  S
C1660      C1661   1.404       .  A
C1660      H1665   1.084       .  S
C1661      C1662   1.420       .  A
C1662      C1663   1.508       .  S
C1663      H1667   1.111       .  S
C1663      H1668   1.110       .  S
C1663      H1669   1.110       .  S
C1666      H1670   1.108       .  S
C1666      H1671   1.110       .  S
C1666      H1672   1.111       .  S
C1673      C1674   1.401       .  A
C1673      C1678   1.399       .  A
C1673      H1680   1.085       .  S
C1674      C1675   1.413       .  A
C1675      C1676   1.403       .  A
C1676      C1677   1.404       .  A
C1676      H1681   1.084       .  S
C1677      C1678   1.415       .  A
C1678      C1679   1.506       .  S
C1679      H1683   1.110       .  S
C1679      H1684   1.111       .  S
C1679      H1685   1.108       .  S
C1682      H1686   1.109       .  S
C1682      H1687   1.110   1_554  S
C1682      H1688   1.111       .  S
C1689      C1690   1.405       .  A
C1689      C1694   1.410       .  A
C1689      H1696   1.084       .  S
C1690      C1691   1.424       .  A
C1691      C1692   1.401       .  A
C1691      C1698   1.511       .  S
C1692      C1693   1.401       .  A
C1692      H1697   1.084       .  S
C1693      C1694   1.417       .  A
C1694      C1695   1.507       .  S
C1695      H1699   1.111       .  S
C1695      H1700   1.110       .  S
C1695      H1701   1.108       .  S
C1698      H1702   1.110       .  S
C1698      H1703   1.107       .  S
C1698      H1704   1.111       .  S
C1705      C1706   1.399       .  A
C1705      C1710   1.396       .  A
C1705      H1712   1.085       .  S
C1706      C1707   1.416       .  A
C1707      C1708   1.402       .  A
C1707      C1714   1.509       .  S
C1708      C1709   1.401       .  A
C1708      H1713   1.084       .  S
C1709      C1710   1.418       .  A
C1710      C1711   1.509       .  S
C1711      H1715   1.111       .  S
C1711      H1716   1.109       .  S
C1711      H1717   1.108       .  S
C1714      H1719   1.111       .  S
C1714      H1720   1.111   1_545  S
C1721      C1722   1.411   1_565  A
C1721      H1728   1.084       .  S
C1723      C1724   1.410       .  A
C1723      C1730   1.507       .  S
C1724      C1725   1.411   1_545  A
C1724      H1729   1.084       .  S
C1725      C1726   1.416   1_556  A
C1727      H1731   1.111       .  S
C1730      H1734   1.110   1_556  S
C1730      H1735   1.110       .  S
C1730      H1736   1.111       .  S
C1737      C1738   1.404       .  A
C1737      C1742   1.402       .  A
C1737      H1744   1.084       .  S
C1738      C1739   1.419       .  A
C1739      C1740   1.400       .  A
C1739      C1746   1.511       .  S
C1740      C1741   1.400       .  A
C1740      H1745   1.085       .  S
C1741      C1742   1.411       .  A
C1742      C1743   1.507   1_565  S
C1743      H1747   1.110       .  S
C1743      H1748   1.109       .  S
C1743      H1749   1.110   1_545  S
C1746      H1750   1.108       .  S
C1746      H1751   1.110       .  S
C1746      H1752   1.111       .  S
C1753      C1754   1.410       .  A
C1753      H1760   1.083       .  S
C1755      C1756   1.410       .  A
C1755      C1762   1.506       .  S
C1756      C1757   1.406       .  A
C1756      H1761   1.084       .  S
C1757      C1758   1.413       .  A
C1758      C1759   1.510       .  S
C1759      H1763   1.111       .  S
C1759      H1764   1.109       .  S
C1759      H1765   1.110       .  S
C1762      H1767   1.110   1_565  S
C1762      H1768   1.111       .  S
C1769      C1770   1.412       .  A
C1769      C1774   1.404       .  A
C1769      H1776   1.083       .  S
C1770      C1771   1.423       .  A
C1771      C1772   1.412       .  A
C1771      C1778   1.507       .  S
C1772      C1773   1.404       .  A
C1772      H1777   1.084       .  S
C1773      C1774   1.411       .  A
C1774      C1775   1.509       .  S
C1775      H1779   1.111       .  S
C1775      H1780   1.109       .  S
C1775      H1781   1.111       .  S
C1778      H1782   1.111       .  S
C1778      H1783   1.110       .  S
C1778      H1784   1.110       .  S
C1785      C1786   1.399       .  A
C1785      C1790   1.399       .  A
C1785      H1792   1.085       .  S
C1786      C1787   1.421       .  A
C1787      C1788   1.402       .  A
C1787      C1794   1.510   1_565  S
C1788      C1789   1.398       .  A
C1788      H1793   1.084       .  S
C1789      C1790   1.420       .  A
C1790      C1791   1.510       .  S
C1791      H1795   1.111       .  S
C1791      H1796   1.108       .  S
C1791      H1797   1.111       .  S
C1794      H1798   1.108       .  S
C1794      H1799   1.108       .  S
C1794      H1800   1.111   1_545  S
C1801      C1802   1.402       .  A
C1801      C1806   1.406   1_545  A
C1801      H1808   1.084       .  S
C1802      C1803   1.419   1_545  A
C1803      C1804   1.400       .  A
C1803      C1810   1.510       .  S
C1804      C1805   1.401       .  A
C1804      H1809   1.085       .  S
C1805      C1806   1.419       .  A
C1806      C1807   1.509       .  S
C1807      H1811   1.111   1_565  S
C1807      H1812   1.109       .  S
C1807      H1813   1.111       .  S
C1810      H1814   1.109       .  S
C1810      H1815   1.111       .  S
C1810      H1816   1.110       .  S
C1817      C1818   1.403       .  A
C1817      C1822   1.410       .  A
C1817      H1824   1.084       .  S
C1818      C1819   1.421       .  A
C1819      C1820   1.411       .  A
C1819      C1826   1.508       .  S
C1820      C1821   1.404       .  A
C1820      H1825   1.084       .  S
C1821      C1822   1.422       .  A
C1822      C1823   1.509       .  S
C1823      H1827   1.111       .  S
C1823      H1828   1.108       .  S
C1823      H1829   1.111       .  S
C1826      H1830   1.110       .  S
C1826      H1831   1.110       .  S
C1826      H1832   1.111       .  S
C1833      C1834   1.401       .  A
C1833      C1838   1.400       .  A
C1833      H1840   1.085       .  S
C1834      C1835   1.410       .  A
C1835      C1836   1.404       .  A
C1835      C1842   1.506       .  S
C1836      C1837   1.406       .  A
C1836      H1841   1.084       .  S
C1837      C1838   1.417       .  A
C1838      C1839   1.509       .  S
C1839      H1843   1.109       .  S
C1839      H1844   1.110       .  S
C1839      H1845   1.110       .  S
C1842      H1846   1.109       .  S
C1842      H1847   1.110       .  S
C1842      H1848   1.110       .  S
C1849      C1850   1.398       .  A
C1849      H1856   1.085       .  S
C1851      C1852   1.403       .  A
C1851      C1858   1.510       .  S
C1852      C1853   1.406       .  A
C1852      H1857   1.084       .  S
C1853      C1854   1.425   1_556  A
C1855      H1859   1.111       .  S
C1855      H1861   1.110       .  S
C1858      H1862   1.109       .  S
C1858      H1864   1.111       .  S
C1865      C1866   1.407       .  A
C1865      C1870   1.405       .  A
C1865      H1872   1.085       .  S
C1866      C1867   1.421       .  A
C1867      C1868   1.401       .  A
C1867      C1874   1.508       .  S
C1868      C1869   1.400       .  A
C1868      H1873   1.085       .  S
C1869      C1870   1.414       .  A
C1870      C1871   1.507       .  S
C1871      H1875   1.111       .  S
C1871      H1876   1.109       .  S
C1871      H1877   1.110       .  S
C1874      H1878   1.110       .  S
C1874      H1879   1.105       .  S
C1874      H1880   1.109       .  S
C1881      C1882   1.404       .  A
C1881      C1886   1.408       .  A
C1881      H1888   1.084       .  S
C1882      C1883   1.419       .  A
C1883      C1884   1.407       .  A
C1883      C1890   1.509       .  S
C1884      C1885   1.401       .  A
C1884      H1889   1.083       .  S
C1885      C1886   1.417       .  A
C1886      C1887   1.507       .  S
C1887      H1891   1.111       .  S
C1887      H1892   1.110       .  S
C1887      H1893   1.109       .  S
C1890      H1894   1.108       .  S
C1890      H1895   1.110       .  S
C1890      H1896   1.111       .  S
C1897      C1898   1.407       .  A
C1897      C1902   1.406       .  A
C1897      H1904   1.084       .  S
C1898      C1899   1.415       .  A
C1899      C1900   1.405       .  A
C1899      C1906   1.506       .  S
C1900      C1901   1.405       .  A
C1900      H1905   1.084       .  S
C1901      C1902   1.413       .  A
C1902      C1903   1.507       .  S
C1903      H1907   1.110       .  S
C1903      H1908   1.110       .  S
C1903      H1909   1.109       .  S
C1906      H1910   1.110       .  S
C1906      H1911   1.108       .  S
C1906      H1912   1.111       .  S
C1913      C1918   1.400       .  A
C1913      H1920   1.084       .  S
C1914      C1915   1.414       .  A
C1915      C1916   1.403       .  A
C1915      C1922   1.507       .  S
C1916      H1921   1.084       .  S
C1917      C1918   1.414       .  A
C1918      C1919   1.509       .  S
C1919      H1923   1.111       .  S
C1919      H1924   1.109       .  S
C1919      H1925   1.111       .  S
C1922      H1926   1.109       .  S
C1922      H1927   1.110       .  S
C1922      H1928   1.110       .  S
C1929      C1930   1.401   1_455  A
C1929      C1934   1.405       .  A
C1929      H1936   1.085       .  S
C1930      C1931   1.402       .  A
C1931      C1932   1.395   1_655  A
C1931      C1938   1.508       .  S
C1932      C1933   1.413       .  A
C1932      H1937   1.083       .  S
C1933      C1934   1.419       .  A
C1934      C1935   1.506       .  S
C1935      H1939   1.111       .  S
C1935      H1940   1.106       .  S
C1935      H1941   1.110       .  S
C1938      H1942   1.110       .  S
C1938      H1943   1.109       .  S
C1938      H1944   1.111       .  S
C1945      C1946   1.410       .  A
C1945      C1950   1.401       .  A
C1945      H1952   1.084       .  S
C1946      C1947   1.418       .  A
C1947      C1948   1.407       .  A
C1947      C1954   1.507       .  S
C1948      C1949   1.407       .  A
C1948      H1953   1.084       .  S
C1949      C1950   1.415       .  A
C1950      C1951   1.510       .  S
C1951      H1955   1.111       .  S
C1951      H1956   1.110       .  S
C1951      H1957   1.111       .  S
C1954      H1958   1.111       .  S
C1954      H1959   1.109       .  S
C1954      H1960   1.111       .  S
C1961      C1962   1.405       .  A
C1961      C1966   1.403       .  A
C1961      H1968   1.085       .  S
C1962      C1963   1.416       .  A
C1963      C1964   1.402       .  A
C1963      C1970   1.508       .  S
C1964      C1965   1.404       .  A
C1964      H1969   1.085       .  S
C1965      C1966   1.414       .  A
C1966      C1967   1.506       .  S
C1967      H1971   1.111       .  S
C1967      H1972   1.110       .  S
C1967      H1973   1.108       .  S
C1970      H1974   1.109       .  S
C1970      H1975   1.108       .  S
C1970      H1976   1.111       .  S
C1977      C1978   1.408       .  A
C1977      C1982   1.406       .  A
C1977      H1984   1.084       .  S
C1978      C1979   1.415       .  A
C1979      C1980   1.410       .  A
C1979      C1986   1.506       .  S
C1980      C1981   1.411       .  A
C1980      H1985   1.083       .  S
C1981      C1982   1.418       .  A
C1982      C1983   1.509       .  S
C1983      H1987   1.111       .  S
C1983      H1988   1.110       .  S
C1983      H1989   1.109       .  S
C1986      H1990   1.110       .  S
C1986      H1991   1.108       .  S
C1986      H1992   1.111       .  S
C1993      C1994   1.402       .  A
C1993      C1998   1.401       .  A
C1993      H2000   1.085       .  S
C1994      C1995   1.414       .  A
C1995      C1996   1.403       .  A
C1995      C2002   1.508       .  S
C1996      C1997   1.403       .  A
C1996      H2001   1.084       .  S
C1997      C1998   1.414       .  A
C1999      H2003   1.110       .  S
C1999      H2004   1.109       .  S
C1999      H2005   1.110   1_554  S
C2002      H2006   1.109       .  S
C2002      H2007   1.110       .  S
C2002      H2008   1.111       .  S
C2009      C2010   1.404       .  A
C2009      C2014   1.399       .  A
C2009      H2016   1.085       .  S
C2010      C2011   1.410       .  A
C2011      C2012   1.404       .  A
C2011      C2018   1.507       .  S
C2012      C2013   1.409       .  A
C2012      H2017   1.084   1_655  S
C2013      C2014   1.416       .  A
C2014      C2015   1.509       .  S
C2015      H2019   1.111       .  S
C2015      H2020   1.110       .  S
C2015      H2021   1.105       .  S
C2018      H2022   1.109       .  S
C2018      H2023   1.110       .  S
C2018      H2024   1.111   1_655  S
C2025      C2030   1.407       .  A
C2025      H2032   1.084       .  S
C2026      C2027   1.413       .  A
C2027      C2028   1.400       .  A
C2027      C2034   1.510       .  S
C2028      H2033   1.084       .  S
C2029      C2030   1.416       .  A
C2030      C2031   1.508       .  S
C2031      H2035   1.111       .  S
C2031      H2036   1.110       .  S
C2031      H2037   1.109       .  S
C2034      H2038   1.110       .  S
C2034      H2039   1.111       .  S
C2034      H2040   1.111       .  S
C2041      C2042   1.404       .  A
C2041      C2046   1.406       .  A
C2041      H2048   1.084       .  S
C2042      C2043   1.424       .  A
C2043      C2044   1.411       .  A
C2043      C2050   1.508       .  S
C2044      C2045   1.405       .  A
C2044      H2049   1.084       .  S
C2045      C2046   1.424       .  A
C2046      C2047   1.511       .  S
C2047      H2051   1.111       .  S
C2047      H2052   1.109       .  S
C2047      H2053   1.110       .  S
C2050      H2054   1.110       .  S
C2050      H2055   1.110       .  S
C2050      H2056   1.111       .  S
C2057      C2058   1.401       .  A
C2057      C2062   1.406       .  A
C2057      H2064   1.084       .  S
C2058      C2059   1.410       .  A
C2059      C2060   1.398       .  A
C2059      C2066   1.508       .  S
C2060      C2061   1.405       .  A
C2060      H2065   1.085       .  S
C2061      C2062   1.417       .  A
C2062      C2063   1.506       .  S
C2063      H2067   1.111       .  S
C2063      H2068   1.110       .  S
C2063      H2069   1.104       .  S
C2066      H2071   1.108       .  S
C2066      H2072   1.111       .  S
C2073      C2074   1.410       .  A
C2073      C2078   1.406       .  A
C2073      H2080   1.083       .  S
C2074      C2075   1.419       .  A
C2075      C2076   1.402       .  A
C2075      C2082   1.510       .  S
C2076      C2077   1.408       .  A
C2076      H2081   1.084       .  S
C2077      C2078   1.416       .  A
C2078      C2079   1.509       .  S
C2079      H2083   1.111       .  S
C2079      H2084   1.110       .  S
C2079      H2085   1.109       .  S
C2082      H2086   1.110       .  S
C2082      H2087   1.110       .  S
C2082      H2088   1.111       .  S
C2089      C2090   1.408       .  A
C2089      C2094   1.403       .  A
C2089      H2096   1.084       .  S
C2090      C2091   1.416       .  A
C2091      C2092   1.400       .  A
C2091      C2098   1.507       .  S
C2092      C2093   1.403       .  A
C2092      H2097   1.085       .  S
C2093      C2094   1.411       .  A
C2094      C2095   1.508   1_556  S
C2095      H2099   1.111       .  S
C2095      H2100   1.109       .  S
C2098      H2102   1.106       .  S
C2098      H2103   1.110       .  S
C2098      H2104   1.109       .  S
C2105      C2106   1.405       .  A
C2105      C2110   1.407       .  A
C2105      H2112   1.084       .  S
C2106      C2107   1.421       .  A
C2107      C2108   1.397       .  A
C2107      C2114   1.510       .  S
C2108      C2109   1.400       .  A
C2108      H2113   1.084       .  S
C2109      C2110   1.417       .  A
C2110      C2111   1.508       .  S
C2111      H2115   1.111       .  S
C2111      H2116   1.109       .  S
C2111      H2117   1.111       .  S
C2114      H2118   1.107       .  S
C2114      H2119   1.111       .  S
C2114      H2120   1.111       .  S
C2121      C2122   1.403       .  A
C2121      C2126   1.396       .  A
C2121      H2128   1.079       .  S
C2122      C2123   1.415       .  A
C2123      C2124   1.408       .  A
C2123      C2130   1.507       .  S
C2124      C2125   1.407       .  A
C2124      H2129   1.084       .  S
C2125      C2126   1.414       .  A
C2126      C2127   1.511       .  S
C2127      H2131   1.111       .  S
C2127      H2132   1.104       .  S
C2127      H2133   1.110       .  S
C2130      H2134   1.109       .  S
C2130      H2135   1.110       .  S
C2130      H2136   1.111       .  S
C2137      C2138   1.402       .  A
C2137      C2142   1.405       .  A
C2137      H2144   1.084       .  S
C2138      C2139   1.418       .  A
C2139      C2140   1.397       .  A
C2139      C2146   1.512       .  S
C2140      C2141   1.403       .  A
C2140      H2145   1.084       .  S
C2141      C2142   1.419       .  A
C2142      C2143   1.508       .  S
C2143      H2147   1.111       .  S
C2143      H2148   1.109       .  S
C2143      H2149   1.110       .  S
C2146      H2150   1.109       .  S
C2146      H2151   1.110       .  S
C2146      H2152   1.111       .  S
C2153      C2154   1.411       .  A
C2153      C2158   1.405       .  A
C2153      H2160   1.084       .  S
C2154      C2155   1.413       .  A
C2155      C2156   1.399       .  A
C2155      C2162   1.509       .  S
C2156      C2157   1.405       .  A
C2156      H2161   1.085       .  S
C2157      C2158   1.407       .  A
C2158      C2159   1.506       .  S
C2159      H2163   1.111       .  S
C2159      H2164   1.110   1_655  S
C2159      H2165   1.111       .  S
C2162      H2166   1.110       .  S
C2162      H2167   1.110       .  S
C2162      H2168   1.111       .  S
C2169      C2170   1.411       .  A
C2169      C2174   1.406       .  A
C2169      H2176   1.083       .  S
C2170      C2171   1.419       .  A
C2171      C2172   1.404       .  A
C2171      C2178   1.509       .  S
C2172      C2173   1.408       .  A
C2172      H2177   1.084       .  S
C2173      C2174   1.414       .  A
C2174      C2175   1.508       .  S
C2175      H2179   1.111       .  S
C2175      H2180   1.110       .  S
C2175      H2181   1.109       .  S
C2178      H2182   1.110       .  S
C2178      H2183   1.110       .  S
C2178      H2184   1.111       .  S
C2185      C2186   1.410       .  A
C2185      C2190   1.408       .  A
C2185      H2192   1.084       .  S
C2186      C2187   1.415       .  A
C2187      C2188   1.407       .  A
C2187      C2194   1.508       .  S
C2188      C2189   1.409       .  A
C2188      H2193   1.085       .  S
C2189      C2190   1.413       .  A
C2190      C2191   1.507       .  S
C2191      H2195   1.111       .  S
C2191      H2196   1.110       .  S
C2191      H2197   1.111       .  S
C2194      H2198   1.110       .  S
C2194      H2199   1.110       .  S
C2194      H2200   1.111       .  S
C2201      C2202   1.402       .  A
C2201      H2208   1.084       .  S
C2202      C2203   1.421       .  A
C2203      C2210   1.510   1_655  S
C2204      C2205   1.402       .  A
C2204      H2209   1.084       .  S
C2205      C2206   1.418   1_455  A
C2206      C2207   1.508       .  S
C2207      H2211   1.111       .  S
C2207      H2212   1.111       .  S
C2207      H2213   1.110       .  S
C2210      H2214   1.108       .  S
C2210      H2215   1.111   1_455  S
C2210      H2216   1.111       .  S
C2217      C2218   1.391       .  A
C2217      C2222   1.382   1_455  A
C2217      H2224   1.085   1_455  S
C2218      C2219   1.409       .  A
C2219      C2220   1.414       .  A
C2219      C2226   1.502       .  S
C2220      C2221   1.409       .  A
C2220      H2225   1.084       .  S
C2221      C2222   1.423   1_455  A
C2222      C2223   1.516       .  S
C2223      H2227   1.111       .  S
C2223      H2228   1.108       .  S
C2223      H2229   1.110       .  S
C2226      H2230   1.110       .  S
C2226      H2231   1.110       .  S
C2226      H2232   1.111       .  S
C2233      C2238   1.406       .  A
C2233      H2240   1.083       .  S
C2235      C2236   1.398       .  A
C2236      C2237   1.403       .  A
C2236      H2241   1.084       .  S
C2237      C2238   1.420   1_556  A
C2238      C2239   1.508       .  S
C2239      H2243   1.111       .  S
C2239      H2244   1.108       .  S
C2239      H2245   1.111       .  S
C2242      H2246   1.111   1_565  S
C2242      H2248   1.110       .  S
C2249      C2250   1.402   1_565  A
C2249      C2254   1.408   1_565  A
C2249      H2256   1.084       .  S
C2250      C2251   1.409       .  A
C2251      C2252   1.400       .  A
C2251      C2258   1.508       .  S
C2252      C2253   1.411       .  A
C2252      H2257   1.084       .  S
C2253      C2254   1.420       .  A
C2254      C2255   1.507       .  S
C2255      H2259   1.111   1_545  S
C2255      H2260   1.109       .  S
C2255      H2261   1.110       .  S
C2258      H2262   1.108       .  S
C2258      H2263   1.109       .  S
C2258      H2264   1.111       .  S
C2265      C2266   1.405       .  A
C2265      C2270   1.407       .  A
C2265      H2272   1.084       .  S
C2267      C2268   1.399       .  A
C2267      C2274   1.506       .  S
C2268      C2269   1.398       .  A
C2268      H2273   1.084       .  S
C2270      C2271   1.508       .  S
C2271      H2275   1.111       .  S
C2271      H2276   1.110       .  S
C2271      H2277   1.109       .  S
C2274      H2278   1.110       .  S
C2274      H2280   1.110       .  S
C2281      C2282   1.406       .  A
C2281      C2286   1.399       .  A
C2281      H2288   1.084       .  S
C2282      C2283   1.412       .  A
C2283      C2284   1.404       .  A
C2283      C2290   1.507   1_556  S
C2284      C2285   1.405       .  A
C2284      H2289   1.083       .  S
C2285      C2286   1.408       .  A
C2286      C2287   1.507       .  S
C2287      H2291   1.111       .  S
C2287      H2292   1.110       .  S
C2287      H2293   1.109       .  S
C2290      H2295   1.109   1_554  S
C2290      H2296   1.111       .  S
C2297      C2298   1.411       .  A
C2297      C2302   1.406       .  A
C2297      H2304   1.083       .  S
C2298      C2299   1.420       .  A
C2299      C2300   1.409       .  A
C2299      C2306   1.508       .  S
C2300      C2301   1.409       .  A
C2300      H2305   1.084       .  S
C2301      C2302   1.414       .  A
C2302      C2303   1.505       .  S
C2303      H2307   1.111       .  S
C2303      H2308   1.110       .  S
C2303      H2309   1.107       .  S
C2306      H2310   1.110       .  S
C2306      H2311   1.110       .  S
C2306      H2312   1.111       .  S
C2313      C2314   1.393       .  A
C2313      C2318   1.402       .  A
C2313      H2320   1.085       .  S
C2314      C2315   1.412       .  A
C2315      C2316   1.404       .  A
C2315      C2322   1.506       .  S
C2316      C2317   1.405       .  A
C2316      H2321   1.084       .  S
C2317      C2318   1.427       .  A
C2318      C2319   1.511       .  S
C2319      H2323   1.111       .  S
C2319      H2324   1.109       .  S
C2319      H2325   1.110       .  S
C2322      H2326   1.106       .  S
C2322      H2327   1.106       .  S
C2322      H2328   1.111       .  S
C2329      C2330   1.407       .  A
C2329      C2334   1.412       .  A
C2329      H2336   1.084       .  S
C2330      C2331   1.418       .  A
C2331      C2332   1.406       .  A
C2331      C2338   1.509       .  S
C2332      C2333   1.403       .  A
C2332      H2337   1.084       .  S
C2333      C2334   1.417       .  A
C2334      C2335   1.507       .  S
C2335      H2339   1.111       .  S
C2335      H2340   1.111       .  S
C2335      H2341   1.110       .  S
C2338      H2342   1.108       .  S
C2338      H2343   1.110       .  S
C2338      H2344   1.111       .  S
C2345      C2346   1.403       .  A
C2345      C2350   1.405       .  A
C2345      H2352   1.084       .  S
C2346      C2347   1.416       .  A
C2347      C2348   1.401       .  A
C2347      C2354   1.508       .  S
C2348      C2349   1.400       .  A
C2348      H2353   1.085       .  S
C2349      C2350   1.412       .  A
C2350      C2351   1.506       .  S
C2351      H2355   1.111       .  S
C2351      H2356   1.108       .  S
C2351      H2357   1.109       .  S
C2354      H2358   1.111       .  S
C2354      H2359   1.110       .  S
C2354      H2360   1.110       .  S
C2361      C2362   1.407       .  A
C2361      C2366   1.407       .  A
C2361      H2368   1.084       .  S
C2362      C2363   1.426       .  A
C2363      C2364   1.406       .  A
C2363      C2370   1.509       .  S
C2364      C2365   1.401       .  A
C2364      H2369   1.084       .  S
C2365      C2366   1.419       .  A
C2366      C2367   1.510       .  S
C2367      H2371   1.111       .  S
C2367      H2372   1.108       .  S
C2367      H2373   1.111       .  S
C2370      H2374   1.109       .  S
C2370      H2375   1.111       .  S
C2370      H2376   1.111       .  S
C2377      C2378   1.408       .  A
C2377      C2382   1.397       .  A
C2377      H2384   1.084       .  S
C2378      C2379   1.416       .  A
C2379      C2380   1.407       .  A
C2380      C2381   1.403       .  A
C2380      H2385   1.084       .  S
C2381      C2382   1.405       .  A
C2382      C2383   1.508       .  S
C2383      H2387   1.111       .  S
C2383      H2388   1.111       .  S
C2383      H2389   1.110       .  S
C2386      H2390   1.110       .  S
C2386      H2391   1.109       .  S
C2386      H2392   1.111       .  S
C2393      C2394   1.407       .  A
C2393      C2398   1.408       .  A
C2393      H2400   1.084       .  S
C2394      C2395   1.426       .  A
C2395      C2396   1.403       .  A
C2395      C2402   1.511       .  S
C2396      C2397   1.399       .  A
C2396      H2401   1.084       .  S
C2397      C2398   1.416       .  A
C2398      C2399   1.508       .  S
C2399      H2403   1.111       .  S
C2399      H2404   1.110       .  S
C2399      H2405   1.111       .  S
C2402      H2406   1.110       .  S
C2402      H2407   1.108       .  S
C2402      H2408   1.111       .  S
C2409      C2410   1.407       .  A
C2409      C2414   1.407       .  A
C2409      H2416   1.083       .  S
C2410      C2411   1.410       .  A
C2411      C2412   1.401       .  A
C2411      C2418   1.509       .  S
C2412      C2413   1.409       .  A
C2412      H2417   1.084       .  S
C2413      C2414   1.412       .  A
C2414      C2415   1.506       .  S
C2415      H2419   1.111       .  S
C2415      H2420   1.110       .  S
C2415      H2421   1.109       .  S
C2418      H2422   1.110       .  S
C2418      H2423   1.109       .  S
C2418      H2424   1.111       .  S
C2425      C2426   1.407       .  A
C2425      C2430   1.410       .  A
C2425      H2432   1.084       .  S
C2426      C2427   1.421       .  A
C2427      C2428   1.397       .  A
C2427      C2434   1.513       .  S
C2428      C2429   1.401       .  A
C2428      H2433   1.085       .  S
C2429      C2430   1.417       .  A
C2430      C2431   1.507       .  S
C2431      H2435   1.111       .  S
C2431      H2436   1.110       .  S
C2431      H2437   1.111       .  S
C2434      H2438   1.109       .  S
C2434      H2439   1.111       .  S
C2434      H2440   1.111       .  S
C2441      C2442   1.408       .  A
C2441      C2446   1.397       .  A
C2441      H2448   1.083       .  S
C2442      C2443   1.413       .  A
C2443      C2444   1.398       .  A
C2443      C2450   1.508       .  S
C2444      C2445   1.401       .  A
C2444      H2449   1.085       .  S
C2445      C2446   1.404       .  A
C2446      C2447   1.507       .  S
C2447      H2451   1.111       .  S
C2447      H2452   1.110       .  S
C2447      H2453   1.111       .  S
C2450      H2454   1.110       .  S
C2450      H2455   1.109       .  S
C2450      H2456   1.111       .  S
C2457      C2458   1.406       .  A
C2457      C2462   1.406       .  A
C2457      H2464   1.085       .  S
C2458      C2459   1.412       .  A
C2459      C2460   1.402       .  A
C2459      C2466   1.508       .  S
C2460      C2461   1.412       .  A
C2460      H2465   1.083       .  S
C2461      C2462   1.420       .  A
C2462      C2463   1.508       .  S
C2463      H2467   1.111       .  S
C2463      H2468   1.110       .  S
C2463      H2469   1.110       .  S
C2466      H2470   1.110       .  S
C2466      H2471   1.109       .  S
C2466      H2472   1.111       .  S
C2473      C2474   1.399       .  A
C2473      C2478   1.407       .  A
C2473      H2480   1.084       .  S
C2474      C2475   1.416       .  A
C2475      C2476   1.398       .  A
C2475      C2482   1.507       .  S
C2476      C2477   1.400       .  A
C2476      H2481   1.084       .  S
C2477      C2478   1.422       .  A
C2478      C2479   1.509       .  S
C2479      H2483   1.111       .  S
C2479      H2484   1.108       .  S
C2479      H2485   1.110       .  S
C2482      H2486   1.107       .  S
C2482      H2487   1.109       .  S
C2482      H2488   1.111       .  S
C2489      C2494   1.416   1_554  A
C2490      C2491   1.423       .  A
C2491      C2498   1.512       .  S
C2492      C2493   1.402       .  A
C2492      H2497   1.084       .  S
C2493      C2494   1.427       .  A
C2494      C2495   1.507       .  S
C2495      H2499   1.111       .  S
C2495      H2500   1.110       .  S
C2495      H2501   1.110       .  S
C2498      H2502   1.109       .  S
C2498      H2503   1.109       .  S
C2498      H2504   1.111       .  S
C2505      C2506   1.404       .  A
C2505      C2510   1.400       .  A
C2505      H2512   1.085       .  S
C2506      C2507   1.412       .  A
C2507      C2508   1.401       .  A
C2507      C2514   1.506       .  S
C2508      C2509   1.404       .  A
C2508      H2513   1.085       .  S
C2509      C2510   1.412       .  A
C2510      C2511   1.508       .  S
C2511      H2515   1.111       .  S
C2511      H2516   1.110       .  S
C2511      H2517   1.110       .  S
C2514      H2518   1.109       .  S
C2514      H2519   1.110       .  S
C2514      H2520   1.111       .  S
