geometry optimzed in LAMMPS
_audit_creation_date              2020-12-01 
_audit_creation_method            'lammps2cif' 
_symmetry_space_group_name_H-M    'P1' 
_symmetry_Int_Tables_number       1 
_symmetry_cell_setting            triclinic 
loop_ 
_symmetry_equiv_pos_as_xyz 
  x,y,z 
_cell_length_a                    49.94884584 
_cell_length_b                    49.97608339834439 
_cell_length_c                    29.4031027444932 
_cell_angle_alpha                 89.91626340392585 
_cell_angle_beta                  90.28216960203497 
_cell_angle_gamma                 89.97057986422591 
loop_ 
_atom_site_label 
_atom_site_type_symbol 
_atom_site_fract_x 
_atom_site_fract_y 
_atom_site_fract_z 
_atom_site_charge 
Fe1        Fe  0.54817216  0.72690404  0.97129277     1.65800
Fe2        Fe  0.57213731  0.67089401  0.92285881     1.73200
Fe3        Fe  0.61113806  0.70489368  0.99768368     1.54400
O4          O  0.61469934  0.74491446  0.98304466    -0.82000
O5          O  0.59473039  0.64392804  0.95942271    -0.80300
O6          O  0.57287965  0.76009959  0.98111327    -0.84500
O7          O  0.54804986  0.72052806  0.03975438    -0.79400
O8          O  0.63398257  0.69650831  0.93956916    -0.81200
O9          O  0.53887071  0.65857907  0.95813797    -0.83900
C10         C  0.56652543  0.71725685  0.06903932     0.96900
C11         C  0.59797178  0.76393310  0.98398274     1.04300
O12         O  0.57745425  0.70107297  0.96397328    -1.12900
O13         O  0.54863820  0.69264569  0.87802704    -0.75300
O14         O  0.54611476  0.73458931  0.90239071    -0.78800
O15         O  0.59099659  0.71324118  0.05846792    -0.79500
C16         C  0.54206144  0.71695735  0.87210610     0.95800
O17         O  0.51828832  0.69788112  0.96513837    -0.77500
O18         O  0.60547238  0.68129646  0.88655078    -0.82600
C19         C  0.60859866  0.64416752  0.99548703     0.98400
C20         C  0.62873674  0.68871762  0.89903169     1.04300
O21         O  0.61283202  0.66539587  0.01775453    -0.78300
C22         C  0.51825705  0.67244089  0.96687624     1.02600
Fe23       Fe  0.75801858  0.51289158  0.57917232     1.65800
Fe24       Fe  0.70416251  0.53297501  0.63886481     1.73200
Fe25       Fe  0.73412433  0.57640318  0.56739900     1.54400
O26         O  0.77434829  0.58010527  0.58076696    -0.82000
O27         O  0.67589732  0.55868200  0.61084135    -0.80300
O28         O  0.79085527  0.53891153  0.57545279    -0.84500
O29         O  0.75037194  0.51785818  0.51142347    -0.79400
O30         O  0.72628126  0.59506263  0.63009639    -0.81200
O31         O  0.68969457  0.50275843  0.59884535    -0.83900
C32         C  0.74553523  0.53793591  0.48636888     0.96900
C33         C  0.79403093  0.56416759  0.57755295     1.04300
O34         O  0.73232209  0.54087428  0.59499794    -1.12900
O35         O  0.72666269  0.50545480  0.67507644    -0.75300
O36         O  0.76767484  0.50480489  0.64633624    -0.78800
O37         O  0.74166700  0.56139735  0.50204483    -0.79500
C38         C  0.75098026  0.49831233  0.67673237     0.95800
O39         O  0.72814308  0.48353140  0.57881348    -0.77500
O40         O  0.71772774  0.56292623  0.68066527    -0.82600
C41         C  0.67402192  0.57262773  0.57498616     0.98400
C42         C  0.72226364  0.58733102  0.67100098     1.04300
O43         O  0.69411256  0.57695866  0.54998154    -0.78300
C44         C  0.70263618  0.48327831  0.58217998     1.02600
Fe45       Fe  0.54664720  0.23057829  0.47964243     1.65800
Fe46       Fe  0.57033538  0.28523205  0.42464542     1.73200
Fe47       Fe  0.61117789  0.25150139  0.49684238     1.54400
O48         O  0.59477969  0.24308368  0.56025402    -0.82000
O49         O  0.60141645  0.27252516  0.38469337    -0.80300
O50         O  0.55147569  0.23402466  0.54838538    -0.84500
O51         O  0.57113586  0.19666205  0.47940923    -0.79400
O52         O  0.61371356  0.29093337  0.51662542    -0.81200
O53         O  0.54403859  0.26465329  0.38332745    -0.83900
C54         C  0.59632015  0.19266047  0.47911579     0.96900
C55         C  0.57144337  0.23740301  0.57442551     1.04300
O56         O  0.57610595  0.25560665  0.46726278    -1.12900
O57         O  0.53920839  0.29948939  0.46269348    -0.75300
O58         O  0.51851703  0.26180870  0.48330160    -0.78800
O59         O  0.61318936  0.21156552  0.48127256    -0.79500
C60         C  0.51953038  0.28732328  0.48038529     0.95800
O61         O  0.53859953  0.22384541  0.41173373    -0.77500
O62         O  0.59548619  0.31165022  0.45761806    -0.82600
C63         C  0.62523042  0.26622282  0.39592013     0.98400
C64         C  0.60982763  0.31183809  0.49319212     1.04300
O65         O  0.63156873  0.25976109  0.43653381    -0.78300
C66         C  0.53536557  0.24094567  0.38045470     1.02600
Fe67       Fe  0.75673487  0.44472272  0.08176905     1.65800
Fe68       Fe  0.70178898  0.42116942  0.13371678     1.73200
Fe69       Fe  0.73567422  0.38087189  0.06254724     1.54400
O70         O  0.74691077  0.39773160  0.00029296    -0.82000
O71         O  0.71499175  0.39036477  0.17378820    -0.80300
O72         O  0.75186845  0.44137160  0.01319285    -0.84500
O73         O  0.79011614  0.41958499  0.07933556    -0.79400
O74         O  0.69690361  0.38079363  0.03859907    -0.81200
O75         O  0.72188108  0.44820902  0.17510243    -0.83900
C76         C  0.79389760  0.39439058  0.08140489     0.96900
C77         C  0.75027264  0.42162603  0.98635770     1.04300
O78         O  0.73163449  0.41553071  0.09255341    -1.12900
O79         O  0.68762722  0.45205318  0.09492130    -0.75300
O80         O  0.72606127  0.47318267  0.08047355    -0.78800
O81         O  0.77485720  0.37764411  0.08275304    -0.79500
C82         C  0.70053578  0.47253548  0.08212055     0.95800
O83         O  0.76368141  0.45135388  0.15034902    -0.77500
O84         O  0.67585624  0.39575186  0.09961334    -0.82600
C85         C  0.71913141  0.36620088  0.16232409     0.98400
C86         C  0.67579325  0.38378617  0.06163530     1.04300
O87         O  0.72443888  0.35976269  0.12132766    -0.78300
C88         C  0.74576362  0.45642161  0.17949803     1.02600
Fe89       Fe  0.47794106  0.23956543  0.97573711     1.65800
Fe90       Fe  0.45106499  0.29126173  0.91632009     1.73200
Fe91       Fe  0.41396958  0.25981993  0.99651921     1.54400
O92         O  0.41143557  0.21967206  0.98216270    -0.82000
O93         O  0.42902697  0.31929819  0.95189003    -0.80300
O94         O  0.45394778  0.20604146  0.98629579    -0.84500
O95         O  0.47658648  0.24827405  0.04337266    -0.79400
O96         O  0.39014041  0.26775428  0.93985771    -0.81200
O97         O  0.48481104  0.30668103  0.94649932    -0.83900
C98         C  0.45736412  0.25017190  0.07104837     0.96900
C99         C  0.42890962  0.20139247  0.98624040     1.04300
O100        O  0.44757990  0.26341699  0.96275425    -1.12900
O101        O  0.47394166  0.26759667  0.87401383    -0.75300
O102        O  0.48267011  0.22891963  0.90851691    -0.78800
O103        O  0.43302404  0.25185332  0.05841382    -0.79500
C104        C  0.48351798  0.24404246  0.87389802     0.95800
O105        O  0.50610534  0.26991510  0.96945199    -0.77500
O106        O  0.41729535  0.27839795  0.88258164    -0.82600
C107        C  0.41735217  0.32044419  0.99010626     0.98400
C108        C  0.39418856  0.27363380  0.89839077     1.04300
O109        O  0.41320152  0.29972288  0.01400490    -0.78300
C110        C  0.50530498  0.29505277  0.96261953     1.02600
Fe111      Fe  0.26623169  0.44655405  0.58159813     1.65800
Fe112      Fe  0.32334624  0.42439858  0.63382293     1.73200
Fe113      Fe  0.29223025  0.38489983  0.55508381     1.54400
O114        O  0.25185406  0.37960599  0.56659128    -0.82000
O115        O  0.35248926  0.40683078  0.59460396    -0.80300
O116        O  0.23425818  0.42000537  0.57787446    -0.84500
O117        O  0.27035009  0.44580641  0.51261155    -0.79400
O118        O  0.30005574  0.36139932  0.61207407    -0.81200
O119        O  0.33327406  0.46056575  0.60577955    -0.83900
C120        C  0.27660585  0.42822903  0.48359779     0.96900
C121        C  0.23191133  0.39493166  0.57226064     1.04300
O122        O  0.29385328  0.41852460  0.59018015    -1.12900
O123        O  0.29948926  0.44324953  0.68045795    -0.75300
O124        O  0.25931322  0.45096357  0.65016007    -0.78800
O125        O  0.28440201  0.40476781  0.49418681    -0.79500
C126        C  0.27573764  0.45193874  0.68308397     0.95800
O127        O  0.29405290  0.47731265  0.58267479    -0.77500
O128        O  0.31626922  0.38865631  0.66599980    -0.82600
C129        C  0.35355861  0.39253153  0.55916231     0.98400
C130        C  0.30903785  0.36576823  0.65196079     1.04300
O131        O  0.33256276  0.38486308  0.53852963    -0.78300
C132        C  0.31894793  0.47957534  0.59075654     1.02600
Fe133      Fe  0.47624966  0.72916229  0.47776451     1.65800
Fe134      Fe  0.45346310  0.66999715  0.43472639     1.73200
Fe135      Fe  0.41091736  0.70991573  0.49429569     1.54400
O136        O  0.42702168  0.71867110  0.55828195    -0.82000
O137        O  0.42098433  0.67659907  0.39331165    -0.80300
O138        O  0.47011964  0.72928057  0.54663118    -0.84500
O139        O  0.45242499  0.76339859  0.47150634    -0.79400
O140        O  0.40505473  0.67152155  0.51704918    -0.81200
O141        O  0.47687335  0.68913427  0.38764451    -0.83900
C142        C  0.42740197  0.76795116  0.47213591     0.96900
C143        C  0.45020207  0.72547723  0.57257241     1.04300
O144        O  0.44678345  0.70313844  0.46895137    -1.12900
O145        O  0.48652056  0.66012401  0.47256880    -0.75300
O146        O  0.50542397  0.69944965  0.48708666    -0.78800
O147        O  0.41031339  0.74951894  0.47654328    -0.79500
C148        C  0.50625988  0.67398740  0.48588420     0.95800
O149        O  0.48492746  0.73110629  0.40909014    -0.77500
O150        O  0.43145752  0.64538350  0.47638168    -0.82600
C151        C  0.39881838  0.68884862  0.39654349     0.98400
C152        C  0.41372577  0.64863943  0.50636445     1.04300
O153        O  0.39199880  0.70160351  0.43225841    -0.78300
C154        C  0.48649091  0.71221439  0.38036735     1.02600
Fe155      Fe  0.26496772  0.51879263  0.07708565     1.65800
Fe156      Fe  0.32090195  0.54233195  0.12782860     1.73200
Fe157      Fe  0.28666581  0.58256450  0.05640795     1.54400
O158        O  0.27670994  0.56515275  0.99437796    -0.82000
O159        O  0.30868131  0.57344518  0.16796241    -0.80300
O160        O  0.26872619  0.52179881  0.00819018    -0.84500
O161        O  0.23146997  0.54377392  0.07473062    -0.79400
O162        O  0.32574699  0.58376264  0.03428995    -0.81200
O163        O  0.30070570  0.51588833  0.16908732    -0.83900
C164        C  0.22793063  0.56899144  0.07518896     0.96900
C165        C  0.27144329  0.54146103  0.98134826     1.04300
O166        O  0.29063378  0.54799821  0.08686562    -1.12900
O167        O  0.33414248  0.51093124  0.08913070    -0.75300
O168        O  0.29539982  0.48980005  0.07691854    -0.78800
O169        O  0.24715901  0.58550962  0.07404031    -0.79500
C170        C  0.32097825  0.49010962  0.07837388     0.95800
O171        O  0.25856921  0.51296455  0.14563275    -0.77500
O172        O  0.34706792  0.56778183  0.09464319    -0.82600
C173        C  0.30269442  0.59725747  0.15653322     0.98400
C174        C  0.34680634  0.58092981  0.05781781     1.04300
O175        O  0.29644461  0.60369528  0.11574716    -0.78300
C176        C  0.27680733  0.50808506  0.17451002     1.02600
Fe177      Fe  0.04886984  0.22453419  0.47083587     1.65800
Fe178      Fe  0.07511029  0.16933462  0.41968102     1.73200
Fe179      Fe  0.11194108  0.20273895  0.49942834     1.54400
O180        O  0.11494262  0.24307191  0.48770392    -0.82000
O181        O  0.09459136  0.14151440  0.45975009    -0.80300
O182        O  0.07345677  0.25825505  0.47696612    -0.84500
O183        O  0.04925823  0.21946720  0.53985145    -0.79400
O184        O  0.13637564  0.19606087  0.44344615    -0.81200
O185        O  0.03986076  0.15670416  0.44781974    -0.83900
C186        C  0.06707642  0.21437024  0.56941846     0.96900
C187        C  0.09833676  0.26209822  0.48382544     1.04300
O188        O  0.07878079  0.19905793  0.46313537    -1.12900
O189        O  0.05476655  0.19194415  0.37215121    -0.75300
O190        O  0.04457662  0.23163442  0.40182356    -0.78800
O191        O  0.09131230  0.20934628  0.55952098    -0.79500
C192        C  0.04505426  0.21529500  0.36878909     0.95800
O193        O  0.01996930  0.19462887  0.46834865    -0.77500
O194        O  0.11028314  0.17914304  0.38836946    -0.82600
C195        C  0.10782341  0.14156095  0.49658716     0.98400
C196        C  0.13271482  0.18728063  0.40328079     1.04300
O197        O  0.11381731  0.16296506  0.51711348    -0.78300
C198        C  0.01985940  0.16936647  0.46302760     1.02600
Fe199      Fe  0.26120590  0.02281510  0.08474798     1.65800
Fe200      Fe  0.20091324  0.04465177  0.12541087     1.73200
Fe201      Fe  0.23725778  0.08480511  0.05514372     1.54400
O202        O  0.27772907  0.08726452  0.06661059    -0.82000
O203        O  0.17459617  0.05870966  0.07701469    -0.80300
O204        O  0.29297043  0.04898758  0.09491754    -0.84500
O205        O  0.26411905  0.02714026  0.01561822    -0.79400
O206        O  0.23108095  0.10724604  0.11349957    -0.81200
O207        O  0.19465348  0.00731521  0.09944128    -0.83900
C208        C  0.25583467  0.04317287  0.98517064     0.96900
C209        C  0.29658194  0.07297022  0.08224117     1.04300
O210        O  0.23319819  0.05078550  0.08863689    -1.12900
O211        O  0.22213626  0.02916028  0.17956354    -0.75300
O212        O  0.26127544  0.01486532  0.15352478    -0.78800
O213        O  0.24365970  0.06490925  0.99424994    -0.79500
C214        C  0.24451498  0.01761169  0.18536320     0.95800
O215        O  0.23360562  0.99256316  0.07299508    -0.77500
O216        O  0.20336234  0.08179460  0.15481556    -0.82600
C217        C  0.17559019  0.07731849  0.04787974     0.98400
C218        C  0.21584162  0.10347189  0.14746677     1.04300
O219        O  0.19734644  0.08876870  0.03776046    -0.78300
C220        C  0.20875408  0.98958929  0.08032698     1.02600
Fe221      Fe  0.04993908  0.73736863  0.97446059     1.65800
Fe222      Fe  0.07028188  0.79596789  0.92566751     1.73200
Fe223      Fe  0.11374002  0.76052743  0.99251328     1.54400
O224        O  0.09731332  0.75499181  0.05716751    -0.82000
O225        O  0.10334294  0.78850524  0.88663616    -0.80300
O226        O  0.05669344  0.73772179  0.04330691    -0.84500
O227        O  0.07505308  0.70440826  0.96766162    -0.79400
O228        O  0.11874772  0.80010430  0.00817637    -0.81200
O229        O  0.04747197  0.77492922  0.87979937    -0.83900
C230        C  0.09997408  0.70104249  0.97402451     0.96900
C231        C  0.07515595  0.74501858  0.07039522     1.04300
O232        O  0.07804713  0.76454935  0.96425103    -1.12900
O233        O  0.03694184  0.80574539  0.96192217    -0.75300
O234        O  0.02054938  0.76643678  0.98445442    -0.78800
O235        O  0.11569797  0.72017284  0.98251435    -0.79500
C236        C  0.01899889  0.79180210  0.98084035     0.95800
O237        O  0.04021027  0.73386785  0.90633115    -0.77500
O238        O  0.09109406  0.82313756  0.96428983    -0.82600
C239        C  0.12558316  0.77653796  0.89209790     0.98400
C240        C  0.10929201  0.82201766  0.99415820     1.04300
O241        O  0.13248490  0.76561344  0.92969911    -0.78300
C242        C  0.03817018  0.75153685  0.87558706     1.02600
Fe243      Fe  0.25752706  0.94259393  0.59196097     1.65800
Fe244      Fe  0.20033098  0.91752470  0.63386585     1.73200
Fe245      Fe  0.23384532  0.88217693  0.55478261     1.54400
O246        O  0.24299926  0.90492039  0.49744426    -0.82000
O247        O  0.21222355  0.88357439  0.66754558    -0.80300
O248        O  0.25480684  0.94552529  0.52277176    -0.84500
O249        O  0.29046667  0.91702643  0.58530104    -0.79400
O250        O  0.19439813  0.88294472  0.53322379    -0.81200
O251        O  0.22008211  0.94077005  0.68099384    -0.83900
C252        C  0.29342248  0.89225357  0.57658249     0.96900
C253        C  0.25018040  0.92910213  0.49083306     1.04300
O254        O  0.23081703  0.91392854  0.59316159    -1.12900
O255        O  0.18831379  0.95155871  0.60048130    -0.75300
O256        O  0.22783331  0.97231301  0.59622003    -0.78800
O257        O  0.27377675  0.87680193  0.56924187    -0.79500
C258        C  0.20223515  0.97255867  0.59446674     0.95800
O259        O  0.26271293  0.94217001  0.66186659    -0.77500
O260        O  0.17368123  0.89512271  0.59604156    -0.82600
C261        C  0.21917932  0.86085967  0.65188549     0.98400
C262        C  0.17343296  0.88481940  0.55685783     1.04300
O263        O  0.22495318  0.85695379  0.61001046    -0.78300
C264        C  0.24421218  0.94588859  0.69056434     1.02600
Fe265      Fe  0.97488605  0.73431886  0.46540101     1.65800
Fe266      Fe  0.95063480  0.79049142  0.41560300     1.73200
Fe267      Fe  0.91326866  0.75873183  0.49497780     1.54400
O268        O  0.90842899  0.71861579  0.48352878    -0.82000
O269        O  0.92936329  0.81881246  0.45178216    -0.80300
O270        O  0.94903968  0.70149906  0.47274888    -0.84500
O271        O  0.97592287  0.73958501  0.53413761    -0.79400
O272        O  0.88917737  0.76591523  0.43753050    -0.81200
O273        O  0.98480591  0.80284279  0.44804815    -0.83900
C274        C  0.95887433  0.74554350  0.56422587     0.96900
C275        C  0.92395107  0.69881102  0.47883385     1.04300
O276        O  0.94608515  0.76098059  0.45877705    -1.12900
O277        O  0.97291676  0.76818823  0.37043198    -0.75300
O278        O  0.97696975  0.72677427  0.39656779    -0.78800
O279        O  0.93455522  0.75138600  0.55514130    -0.79500
C280        C  0.98013347  0.74404814  0.36551201     0.95800
O281        O  0.00495435  0.76359072  0.46071817    -0.77500
O282        O  0.91652016  0.77943595  0.38182890    -0.82600
C283        C  0.91688418  0.81949229  0.48908376     0.98400
C284        C  0.89365324  0.77213003  0.39602251     1.04300
O285        O  0.91305335  0.79865110  0.51258259    -0.78300
C286        C  0.00529058  0.78912779  0.45867698     1.02600
Fe287      Fe  0.76420022  0.94653078  0.07543732     1.65800
Fe288      Fe  0.82092658  0.92676368  0.13262390     1.73200
Fe289      Fe  0.78896522  0.88300558  0.06193576     1.54400
O290        O  0.74786814  0.88152970  0.06637219    -0.82000
O291        O  0.85033734  0.90805120  0.09570569    -0.80300
O292        O  0.73178069  0.92119129  0.08679586    -0.84500
O293        O  0.76408285  0.93717394  0.00700689    -0.79400
O294        O  0.79150920  0.86380788  0.12478430    -0.81200
O295        O  0.83052530  0.96187402  0.09947978    -0.83900
C296        C  0.77473571  0.91965785  0.98163854     0.96900
C297        C  0.72849935  0.89664137  0.07707913     1.04300
O298        O  0.79137725  0.91878680  0.09006587    -1.12900
O299        O  0.79684975  0.94636639  0.17791552    -0.75300
O300        O  0.76030295  0.96020096  0.14140872    -0.78800
O301        O  0.78675888  0.89910214  0.99698779    -0.79500
C302        C  0.77466879  0.95850868  0.17688042     0.95800
O303        O  0.79362208  0.97498762  0.06218334    -0.77500
O304        O  0.81398524  0.89234300  0.16883372    -0.82600
C305        C  0.85063297  0.88897904  0.06756716     0.98400
C306        C  0.80262080  0.86987566  0.16247192     1.04300
O307        O  0.82950480  0.87829677  0.05226485    -0.78300
C308        C  0.81808535  0.97805648  0.07353951     1.02600
Fe309      Fe  0.97664700  0.22887374  0.97465140     1.65800
Fe310      Fe  0.95350002  0.17637707  0.91469958     1.73200
Fe311      Fe  0.91281431  0.20655736  0.98994019     1.54400
O312        O  0.93000546  0.21467241  0.05365094    -0.82000
O313        O  0.92233228  0.19088122  0.87661668    -0.80300
O314        O  0.97394708  0.22010572  0.04224888    -0.84500
O315        O  0.95138983  0.26159464  0.98365003    -0.79400
O316        O  0.91214568  0.16658010  0.00750165    -0.81200
O317        O  0.97945618  0.19929225  0.87653327    -0.83900
C318        C  0.92626039  0.26545805  0.98110519     0.96900
C319        C  0.95393204  0.21760173  0.06818557     1.04300
O320        O  0.94762060  0.20399262  0.96013239    -1.12900
O321        O  0.98535347  0.16103567  0.95047257    -0.75300
O322        O  0.00582426  0.19915273  0.96946817    -0.78800
O323        O  0.90959361  0.24662950  0.97555152    -0.79500
C324        C  0.00589749  0.17387582  0.96368896     0.95800
O325        O  0.98209904  0.23976554  0.90749336    -0.77500
O326        O  0.92850047  0.14835999  0.94487760    -0.82600
C327        C  0.89822962  0.19521321  0.88809049     0.98400
C328        C  0.91534392  0.14661790  0.98155585     1.04300
O329        O  0.89165576  0.19866531  0.92955577    -0.78300
C330        C  0.98685287  0.22352501  0.87547627     1.02600
Fe331      Fe  0.76728837  0.01767545  0.57908275     1.65800
Fe332      Fe  0.82288098  0.04370760  0.63086422     1.73200
Fe333      Fe  0.78708985  0.08246250  0.55663024     1.54400
O334        O  0.78199494  0.06391274  0.49402454    -0.82000
O335        O  0.81351902  0.07819814  0.66517057    -0.80300
O336        O  0.76776396  0.02256084  0.50994862    -0.84500
O337        O  0.73286413  0.04113532  0.58271913    -0.79400
O338        O  0.82690140  0.08779944  0.54027261    -0.81200
O339        O  0.80167975  0.02238990  0.67841700    -0.83900
C340        C  0.72816196  0.06576948  0.57522378     0.96900
C341        C  0.77382430  0.04087646  0.48201860     1.04300
O342        O  0.79225867  0.04803086  0.58896085    -1.12900
O343        O  0.83542088  0.00921074  0.59974513    -0.75300
O344        O  0.79845694  0.99018603  0.57217640    -0.78800
O345        O  0.74646558  0.08262546  0.56705713    -0.79500
C346        C  0.82352817  0.98991809  0.58041060     0.95800
O347        O  0.76349364  0.00846663  0.64745034    -0.77500
O348        O  0.84960226  0.06400932  0.59108388    -0.82600
C349        C  0.80278958  0.10044555  0.65463393     0.98400
C350        C  0.84870718  0.08035134  0.55834713     1.04300
O351        O  0.79189580  0.10475761  0.61602807    -0.78300
C352        C  0.77949197  0.01028821  0.68093808     1.02600
C353        C  0.81806753  0.16730740  0.71083223    -0.11700
C354        C  0.82302549  0.15864052  0.75553197     0.14800
C355        C  0.81582703  0.13235084  0.76801972     0.01700
C356        C  0.80609125  0.11481795  0.73494967    -0.16100
C357        C  0.80475734  0.12221725  0.68886101    -0.10900
C358        C  0.80995968  0.14921418  0.67705962     0.08400
C359        C  0.84084913  0.17477284  0.78515885     0.09500
S360        S  0.82131593  0.11896339  0.82433711    -0.25200
H361        H  0.80188392  0.09444306  0.74471507     0.19700
S362        S  0.81067121  0.16097958  0.61917006    -0.30900
H363        H  0.82363358  0.18747096  0.70110050     0.10000
C364        C  0.86826792  0.17689729  0.77469499     0.03200
C365        C  0.88607986  0.18642966  0.80761582    -0.13200
C366        C  0.87740703  0.19363004  0.85145509    -0.08900
C367        C  0.84942841  0.19488032  0.85951901     0.06700
C368        C  0.83152675  0.18489114  0.82668020    -0.14000
S369        S  0.88136400  0.16452208  0.72139793    -0.30900
H370        H  0.90722955  0.18627505  0.79991293     0.10900
S371        S  0.83520357  0.20848072  0.91068486    -0.28000
H372        H  0.81034019  0.18404420  0.83417725     0.08200
H373        H  0.82809566  0.14065737  0.60439782     0.26600
H374        H  0.90756096  0.17439742  0.72663213     0.21400
H375        H  0.85330157  0.23004025  0.91286268     0.26700
H376        H  0.84719071  0.12959800  0.82960879     0.15600
C377        C  0.87892387  0.07957062  0.97475253    -0.11700
C378        C  0.87701603  0.07273338  0.02084082     0.14800
C379        C  0.88866798  0.08968908  0.05381561     0.01700
C380        C  0.90106219  0.11351411  0.04015212    -0.16100
C381        C  0.90284459  0.12062022  0.99399425    -0.10900
C382        C  0.89155933  0.10330373  0.96086213     0.08400
C383        C  0.86144215  0.04855502  0.03337614     0.09500
S384        S  0.88810469  0.08217790  0.11381318    -0.25200
H385        H  0.90961781  0.12654316  0.06587525     0.19700
S386        S  0.89122746  0.11200289  0.90108428    -0.30900
H387        H  0.86976480  0.06654517  0.94975381     0.10000
C388        C  0.83504618  0.05051982  0.04985435     0.03200
C389        C  0.82096900  0.02714417  0.06130702    -0.13200
C390        C  0.83276139  0.00178986  0.05665180    -0.08900
C391        C  0.85890306  0.99987789  0.03854842     0.06700
C392        C  0.87296909  0.02322575  0.02741335    -0.14000
S393        S  0.81922563  0.08281494  0.05589472    -0.30900
H394        H  0.80091734  0.02861288  0.07490696     0.10900
S395        S  0.87502956  0.96825967  0.02740666    -0.28000
H396        H  0.89303797  0.02166238  0.01379351     0.08200
H397        H  0.87703414  0.08949365  0.88545083     0.26600
H398        H  0.79548179  0.07354576  0.07603844     0.21400
H399        H  0.85135769  0.95447914  0.01618306     0.26700
H400        H  0.88812984  0.05419451  0.10912872     0.15600
C401        C  0.74936168  0.94036465  0.86578069    -0.11700
C402        C  0.77340718  0.94744140  0.84460926     0.14800
C403        C  0.79798039  0.94112525  0.86615579     0.01700
C404        C  0.79792675  0.92999299  0.90987641    -0.16100
C405        C  0.77382751  0.92456293  0.93225968    -0.10900
C406        C  0.74934598  0.92858114  0.90894970     0.08400
C407        C  0.77225671  0.96388871  0.80270804     0.09500
S408        S  0.82997161  0.94795060  0.84048138    -0.25200
H409        H  0.81682074  0.92685859  0.92747285     0.19700
S410        S  0.71744860  0.91933837  0.93249975    -0.30900
H411        H  0.73047064  0.94475416  0.84910920     0.10000
C412        C  0.76347667  0.95340682  0.76075224     0.03200
C413        C  0.76411425  0.96967252  0.72173515    -0.13200
C414        C  0.77329045  0.99623393  0.72396333    -0.08900
C415        C  0.78037312  0.00705665  0.76677290     0.06700
C416        C  0.78004214  0.99076213  0.80540535    -0.14000
S417        S  0.75319086  0.91887743  0.75638254    -0.30900
H418        H  0.75890277  0.96121757  0.68895463     0.10900
S419        S  0.78979533  0.04152597  0.77452455    -0.28000
H420        H  0.78602426  0.99906008  0.83794265     0.08200
H421        H  0.72741167  0.89972822  0.96249191     0.26600
H422        H  0.74570333  0.91970316  0.71022185     0.21400
H423        H  0.77387150  0.05138355  0.73860464     0.26700
H424        H  0.82112638  0.94559830  0.79518651     0.15600
C425        C  0.76259450  0.97260840  0.30096093    -0.11700
C426        C  0.76188921  0.00066971  0.30070196     0.14800
C427        C  0.76185079  0.01449821  0.25884309     0.01700
C428        C  0.76396384  0.00002696  0.21826645    -0.16100
C429        C  0.76615864  0.97202923  0.21873439    -0.10900
C430        C  0.76462785  0.95815523  0.26047794     0.08400
C431        C  0.76365476  0.01464941  0.34482799     0.09500
S432        S  0.76054547  0.05050081  0.25518298    -0.25200
H433        H  0.76535056  0.01076201  0.18631178     0.19700
S434        S  0.76607235  0.92212783  0.26430747    -0.30900
H435        H  0.76244145  0.96193695  0.33309003     0.10000
C436        C  0.74186452  0.01503908  0.37493919     0.03200
C437        C  0.74556256  0.02494558  0.41902712    -0.13200
C438        C  0.77061467  0.03450428  0.43353943    -0.08900
C439        C  0.79217490  0.03510612  0.40270745     0.06700
C440        C  0.78838187  0.02536124  0.35851910    -0.14000
S441        S  0.70948056  0.00266547  0.35727672    -0.30900
H442        H  0.72905070  0.02471415  0.44277780     0.10900
S443        S  0.82529263  0.04627623  0.41841280    -0.28000
H444        H  0.80517385  0.02488587  0.33530816     0.08200
H445        H  0.75547969  0.91712034  0.22072918     0.26600
H446        H  0.69650451  0.00641384  0.39914856     0.21400
H447        H  0.82468805  0.03665334  0.46335691     0.26700
H448        H  0.74668615  0.05458499  0.29608458     0.15600
C449        C  0.85715870  0.78157401  0.28493356    -0.11700
C450        C  0.83394254  0.79433048  0.30034346     0.14800
C451        C  0.82731977  0.79274638  0.34692029     0.01700
C452        C  0.84614324  0.78252581  0.37790089    -0.16100
C453        C  0.87116696  0.77324095  0.36298481    -0.10900
C454        C  0.87556835  0.77057716  0.31564022     0.08400
C455        C  0.82076593  0.81360935  0.26910828     0.09500
S456        S  0.79644279  0.80598042  0.36912414    -0.25200
H457        H  0.84206800  0.78396712  0.41396783     0.19700
S458        S  0.90494816  0.75479643  0.29228651    -0.30900
H459        H  0.86193673  0.78189866  0.24903302     0.10000
C460        C  0.82426114  0.84132335  0.27553417     0.03200
C461        C  0.81548668  0.85911514  0.24196231    -0.13200
C462        C  0.80427044  0.85009600  0.20064833    -0.08900
C463        C  0.79899488  0.82230404  0.19589590     0.06700
C464        C  0.80770134  0.80442523  0.22978818    -0.14000
S465        S  0.84270061  0.85415259  0.32400375    -0.30900
H466        H  0.81910929  0.88025850  0.24696322     0.10900
S467        S  0.78231191  0.80805787  0.14721921    -0.28000
H468        H  0.80490859  0.78311223  0.22496944     0.08200
H469        H  0.90922955  0.73753935  0.32949832     0.26600
H470        H  0.83945084  0.88154091  0.31438665     0.21400
H471        H  0.76103381  0.82652337  0.14849153     0.26700
H472        H  0.78217786  0.80510133  0.32779886     0.15600
C473        C  0.86945389  0.87200649  0.53651291    -0.11700
C474        C  0.88309612  0.89575607  0.52654724     0.14800
C475        C  0.90870199  0.89436240  0.50642963     0.01700
C476        C  0.91968779  0.86924972  0.49592004    -0.16100
C477        C  0.90556089  0.84540903  0.50450643    -0.10900
C478        C  0.88000609  0.84706544  0.52494888     0.08400
C479        C  0.86943514  0.92131673  0.53727620     0.09500
S480        S  0.92814467  0.92366125  0.49256418    -0.25200
H481        H  0.93922140  0.86833970  0.48013929     0.19700
S482        S  0.85869625  0.81845831  0.53374015    -0.30900
H483        H  0.84977456  0.87300563  0.55190428     0.10000
C484        C  0.84640027  0.92944461  0.51299015     0.03200
C485        C  0.83181839  0.95181509  0.52773193    -0.13200
C486        C  0.83964195  0.96625911  0.56658553    -0.08900
C487        C  0.86295495  0.95799771  0.59065900     0.06700
C488        C  0.87772117  0.93597903  0.57532855    -0.14000
S489        S  0.83571173  0.91134154  0.46292751    -0.30900
H490        H  0.81429431  0.95816250  0.50875258     0.10900
S491        S  0.87393790  0.97322962  0.64308425    -0.28000
H492        H  0.89510883  0.92940711  0.59451663     0.08200
H493        H  0.86328841  0.80763213  0.49031792     0.26600
H494        H  0.81215337  0.92606208  0.45484271     0.21400
H495        H  0.84801987  0.97519881  0.66139386     0.26700
H496        H  0.90650425  0.94134835  0.48701680     0.15600
C497        C  0.11488115  0.86322274  0.48172409    -0.11700
C498        C  0.10151263  0.84568797  0.51130634     0.14800
C499        C  0.11163691  0.84174404  0.55570468     0.01700
C500        C  0.13448583  0.85563059  0.56976313    -0.16100
C501        C  0.14813429  0.87292658  0.54019509    -0.10900
C502        C  0.13798246  0.87700472  0.49576139     0.08400
C503        C  0.07665530  0.83229965  0.49571802     0.09500
S504        S  0.09650535  0.81909800  0.59597198    -0.25200
H505        H  0.14224317  0.85218188  0.60378657     0.19700
S506        S  0.15288116  0.90020406  0.45623757    -0.30900
H507        H  0.10698745  0.86652696  0.44778986     0.10000
C508        C  0.05130682  0.84086858  0.51066229     0.03200
C509        C  0.02839435  0.82658387  0.49747274    -0.13200
C510        C  0.03024772  0.80375326  0.46979123    -0.08900
C511        C  0.05565343  0.79574874  0.45368171     0.06700
C512        C  0.07854451  0.80997779  0.46706195    -0.14000
S513        S  0.04815907  0.86998947  0.54658613    -0.30900
H514        H  0.00894771  0.83289992  0.50948492     0.10900
S515        S  0.06011951  0.76831240  0.41471786    -0.28000
H516        H  0.09803971  0.80354961  0.45520245     0.08200
H517        H  0.16256001  0.91809554  0.48933524     0.26600
H518        H  0.02021986  0.86874185  0.55199584     0.21400
H519        H  0.03632381  0.77292629  0.39012407     0.26700
H520        H  0.08660050  0.80075078  0.56387826     0.15600
C521        C  0.90630894  0.85746918  0.99882619    -0.11700
C522        C  0.92307494  0.84797076  0.03372204     0.14800
C523        C  0.91685082  0.85383091  0.07943428     0.01700
C524        C  0.89389704  0.86875559  0.08916055    -0.16100
C525        C  0.87660725  0.87747049  0.05438116    -0.10900
C526        C  0.88320989  0.87218993  0.00865006     0.08400
C527        C  0.94747169  0.83298471  0.02129530     0.09500
S528        S  0.93686600  0.84222633  0.12684287    -0.25200
H529        H  0.88877416  0.87251251  0.12449615     0.19700
S530        S  0.86332181  0.88416784  0.96148053    -0.30900
H531        H  0.91136390  0.85348506  0.96369653     0.10000
C532        C  0.94616264  0.80657873  0.00470337     0.03200
C533        C  0.96989786  0.79315160  0.99345512    -0.13200
C534        C  0.99492235  0.80575911  0.99791672    -0.08900
C535        C  0.99606462  0.83211791  0.01558587     0.06700
C536        C  0.97237431  0.84543319  0.02655803    -0.14000
S537        S  0.91429539  0.78991076  0.99824131    -0.30900
H538        H  0.96890971  0.77305256  0.98008790     0.10900
S539        S  0.02700822  0.84967234  0.02637028    -0.28000
H540        H  0.97333857  0.86570614  0.03982780     0.08200
H541        H  0.85340485  0.90697130  0.98371822     0.26600
H542        H  0.92411310  0.76684151  0.97660748     0.21400
H543        H  0.04105165  0.82691303  0.04160777     0.26700
H544        H  0.94666720  0.81895358  0.10592167     0.15600
C545        C  0.21438265  0.82391968  0.76244158    -0.11700
C546        C  0.19929270  0.80151791  0.74918654     0.14800
C547        C  0.19736659  0.79540365  0.70223885     0.01700
C548        C  0.20628773  0.81405873  0.67003217    -0.16100
C549        C  0.21854893  0.83798111  0.68381427    -0.10900
C550        C  0.22511387  0.84135593  0.73020164     0.08400
C551        C  0.18157782  0.78877331  0.78365869     0.09500
S552        S  0.18255107  0.76484764  0.68148161    -0.25200
H553        H  0.20210925  0.81061614  0.63431047     0.19700
S554        S  0.24682308  0.86764443  0.75031369    -0.30900
H555        H  0.21667614  0.82879044  0.79808850     0.10000
C556        C  0.19082348  0.78092238  0.82720579     0.03200
C557        C  0.17219744  0.77539338  0.86170256    -0.13200
C558        C  0.14449036  0.77664010  0.85318888    -0.08900
C559        C  0.13557570  0.78099139  0.80792958     0.06700
C560        C  0.15399525  0.78800796  0.77449579    -0.14000
S561        S  0.22623506  0.77806621  0.83907312    -0.30900
H562        H  0.17926862  0.77120407  0.89584371     0.10900
S563        S  0.10106123  0.77791197  0.79011877    -0.28000
H564        H  0.14654019  0.79369213  0.74118759     0.08200
H565        H  0.25982925  0.87181946  0.70856494     0.26600
H566        H  0.22387454  0.76979358  0.88462415     0.21400
H567        H  0.09533590  0.75650762  0.81969154     0.26700
H568        H  0.18687566  0.75012848  0.72168033     0.15600
C569        C  0.04674537  0.71559327  0.17749694    -0.11700
C570        C  0.04434159  0.73844378  0.20453883     0.14800
C571        C  0.05711090  0.76240771  0.19086141     0.01700
C572        C  0.06934531  0.76374848  0.14803574    -0.16100
C573        C  0.06966018  0.74138538  0.11927995    -0.10900
C574        C  0.05956584  0.71673898  0.13546932     0.08400
C575        C  0.02626370  0.73725393  0.24423180     0.09500
S576        S  0.05716371  0.79220929  0.22542291    -0.25200
H577        H  0.07722645  0.78267780  0.13611129     0.19700
S578        S  0.06160066  0.68626454  0.10305549    -0.30900
H579        H  0.03762044  0.69698896  0.18836976     0.10000
C580        C  0.00117453  0.75014969  0.24338802     0.03200
C581        C  0.98543417  0.75028111  0.28266037    -0.13200
C582        C  0.99380578  0.73709001  0.32252202    -0.08900
C583        C  0.01779937  0.72199426  0.32165762     0.06700
C584        C  0.03390168  0.72252656  0.28277322    -0.14000
S585        S  0.98932190  0.76682736  0.19254777    -0.30900
H586        H  0.96697600  0.76165078  0.28292154     0.10900
S587        S  0.03011338  0.70363016  0.37011981    -0.28000
H588        H  0.05281540  0.71190214  0.28289301     0.08200
H589        H  0.08555756  0.69321956  0.08103202     0.26600
H590        H  0.96309809  0.77159287  0.20782592     0.21400
H591        H  0.00652163  0.68848728  0.37446523     0.26700
H592        H  0.05421765  0.77911866  0.26746146     0.15600
C593        C  0.98903324  0.75715120  0.77846364    -0.11700
C594        C  0.00002089  0.73928341  0.74705779     0.14800
C595        C  0.02260783  0.72379874  0.75942949     0.01700
C596        C  0.03404754  0.72700351  0.80270120    -0.16100
C597        C  0.02346169  0.74551583  0.83352768    -0.10900
C598        C  0.00044150  0.76038931  0.82147594     0.08400
C599        C  0.98926305  0.73988037  0.70027123     0.09500
S600        S  0.03847247  0.70073315  0.72089308    -0.25200
H601        H  0.05191828  0.71583051  0.81167629     0.19700
S602        S  0.98519517  0.78441715  0.85907322    -0.30900
H603        H  0.97189035  0.76923201  0.76886455     0.10000
C604        C  0.96455290  0.72799350  0.68889560     0.03200
C605        C  0.95426259  0.73100672  0.64461678    -0.13200
C606        C  0.96839749  0.74558995  0.61171276    -0.08900
C607        C  0.99303528  0.75773910  0.62369225     0.06700
C608        C  0.00323694  0.75457121  0.66759506    -0.14000
S609        S  0.94673868  0.70827843  0.73038160    -0.30900
H610        H  0.93565899  0.72135538  0.63517125     0.10900
S611        S  0.01214575  0.77817237  0.58499443    -0.28000
H612        H  0.02197114  0.76412751  0.67672895     0.08200
H613        H  0.99092316  0.77014923  0.89916754     0.26600
H614        H  0.92522969  0.70105853  0.70189128     0.21400
H615        H  0.98981151  0.78877275  0.56184105     0.26700
H616        H  0.01562886  0.69531091  0.69438810     0.15600
C617        C  0.18839887  0.92534145  0.01963533    -0.11700
C618        C  0.16630324  0.91758212  0.04588813     0.14800
C619        C  0.15869621  0.93320872  0.08348275     0.01700
C620        C  0.17345975  0.95608136  0.09426789    -0.16100
C621        C  0.19516318  0.96440505  0.06744328    -0.10900
C622        C  0.20239219  0.94896164  0.02911727     0.08400
C623        C  0.15086096  0.89352549  0.03282248     0.09500
S624        S  0.12946708  0.92483246  0.11667326    -0.25200
H625        H  0.16780879  0.96779249  0.12371633     0.19700
S626        S  0.22769953  0.95916855  0.98914929    -0.30900
H627        H  0.19409021  0.91342809  0.99045196     0.10000
C628        C  0.13686308  0.89219112  0.99114642     0.03200
C629        C  0.12235502  0.86906270  0.98045554    -0.13200
C630        C  0.12132261  0.84724835  0.01066198    -0.08900
C631        C  0.13435827  0.84926262  0.05335468     0.06700
C632        C  0.14949600  0.87200740  0.06337657    -0.14000
S633        S  0.13711790  0.91998527  0.95170181    -0.30900
H634        H  0.11238420  0.86769369  0.94776947     0.10900
S635        S  0.13169802  0.82413451  0.09719259    -0.28000
H636        H  0.15990582  0.87321214  0.09574520     0.08200
H637        H  0.22006247  0.98628506  0.98889770     0.26600
H638        H  0.12244265  0.90751382  0.91672224     0.21400
H639        H  0.10488298  0.81767539  0.08719292     0.26700
H640        H  0.12948348  0.94782414  0.14420942     0.15600
C641        C  0.12495506  0.11683266  0.97724078    -0.11700
C642        C  0.10207447  0.11423017  0.00430040     0.14800
C643        C  0.10257558  0.09662073  0.04179547     0.01700
C644        C  0.12647882  0.08382162  0.05368346    -0.20900
C645        C  0.15001452  0.08748237  0.02825258    -0.10900
C646        C  0.14871028  0.10331985  0.98824177     0.08400
C647        C  0.07815647  0.13049004  0.99324019     0.09500
S648        S  0.07360700  0.09022996  0.07661607    -0.25200
H649        H  0.12679794  0.07157677  0.08413093     0.19700
S650        S  0.17627077  0.10681541  0.94934591    -0.30900
H651        H  0.12434970  0.12968082  0.94753950     0.10000
C652        C  0.07001808  0.15185339  0.02126999     0.03200
C653        C  0.04645905  0.16585570  0.01065510    -0.13200
C654        C  0.03101437  0.15908877  0.97233882    -0.08900
C655        C  0.04004801  0.13855182  0.94308688     0.06700
C656        C  0.06326558  0.12428136  0.95418892    -0.14000
S657        S  0.08989585  0.16162215  0.07000684    -0.30900
H658        H  0.03986972  0.18196743  0.03250013     0.10900
S659        S  0.02367523  0.13042193  0.89008717    -0.28000
H660        H  0.06988467  0.10826324  0.93210257     0.08200
H661        H  0.18498001  0.08018493  0.95435301     0.26600
H662        H  0.07199392  0.18089804  0.08689639     0.21400
H663        H  0.01697713  0.15699112  0.87905205     0.26700
H664        H  0.05445626  0.09415316  0.04204977     0.15600
C665        C  0.23587156  0.97374511  0.80980225    -0.11700
C666        C  0.25669680  0.99241526  0.81126548     0.14800
C667        C  0.27532845  0.99334312  0.77540755     0.01700
C668        C  0.27199935  0.97634063  0.73797127    -0.16100
C669        C  0.25011635  0.95868788  0.73502347    -0.10900
C670        C  0.23233466  0.95688996  0.77251526     0.08400
C671        C  0.25883624  0.00949072  0.85204984     0.09500
S672        S  0.30301452  0.01649396  0.77442523    -0.25200
H673        H  0.28576136  0.97810622  0.70976918     0.19700
S674        S  0.20446703  0.93398121  0.77578684    -0.30900
H675        H  0.22211460  0.97239193  0.83809914     0.10000
C676        C  0.23877795  0.02827571  0.86293196     0.03200
C677        C  0.23922246  0.04074908  0.90561702    -0.13200
C678        C  0.25950603  0.03495318  0.93732940    -0.08900
C679        C  0.28098700  0.01816153  0.92418766     0.06700
C680        C  0.28007247  0.00514975  0.88229494    -0.14000
S681        S  0.21230700  0.03585181  0.82284873    -0.30900
H682        H  0.22297119  0.05390382  0.91518025     0.10900
S683        S  0.31021957  0.01259843  0.95907162    -0.28000
H684        H  0.29578801  0.99115651  0.87350928     0.08200
H685        H  0.21645036  0.91374549  0.75015855     0.26600
H686        H  0.19892801  0.05474514  0.84993609     0.21400
H687        H  0.31018575  0.03857876  0.97747933     0.26700
H688        H  0.29055332  0.03674573  0.79983377     0.15600
C689        C  0.26688004  0.97015297  0.27959785    -0.11700
C690        C  0.25282231  0.98060857  0.31654425     0.14800
C691        C  0.23843362  0.00471073  0.31149063     0.01700
C692        C  0.23713109  0.01696598  0.26878278    -0.16100
C693        C  0.25036248  0.00607393  0.23090888    -0.10900
C694        C  0.26606728  0.98265539  0.23706792     0.08400
C695        C  0.25287199  0.96541535  0.35947100     0.09500
S696        S  0.22034915  0.02023072  0.35750510    -0.25200
H697        H  0.22522213  0.03497718  0.26496996     0.19700
S698        S  0.28379696  0.96635785  0.19169720    -0.30900
H699        H  0.27810980  0.95173451  0.28373474     0.10000
C700        C  0.23192767  0.94770789  0.37049475     0.03200
C701        C  0.23216622  0.93471892  0.41281314    -0.13200
C702        C  0.25299531  0.93919686  0.44404300    -0.08900
C703        C  0.27470399  0.95581463  0.43156221     0.06700
C704        C  0.27432681  0.96882787  0.38958124    -0.14000
S705        S  0.20461962  0.94223051  0.33116223    -0.30900
H706        H  0.21554825  0.92205130  0.42243233     0.10900
S707        S  0.30360830  0.96094051  0.46742169    -0.28000
H708        H  0.29071345  0.98196296  0.38046512     0.08200
H709        H  0.30053753  0.98854633  0.18405228     0.26600
H710        H  0.19233478  0.92145279  0.35574125     0.21400
H711        H  0.30280915  0.93511850  0.48618129     0.26700
H712        H  0.23618433  0.01019825  0.39325335     0.15600
C713        C  0.91886154  0.10927684  0.55529429    -0.11700
C714        C  0.92259114  0.11294441  0.50857314     0.14800
C715        C  0.90218903  0.10516802  0.47786740     0.01700
C716        C  0.87808681  0.09493190  0.49481134    -0.16100
C717        C  0.87418416  0.09163854  0.54176534    -0.10900
C718        C  0.89489287  0.09912678  0.57226260     0.08400
C719        C  0.94714098  0.12697021  0.49396474     0.09500
S720        S  0.90568154  0.10781050  0.41698479    -0.25200
H721        H  0.86243452  0.08911759  0.47116570     0.19700
S722        S  0.89144787  0.09811688  0.63331705    -0.30900
H723        H  0.93437982  0.11553246  0.57893339     0.10000
C724        C  0.94639510  0.15396968  0.48023153     0.03200
C725        C  0.97037216  0.16720798  0.47007105    -0.13200
C726        C  0.99525428  0.15426015  0.47457330    -0.08900
C727        C  0.99586604  0.12735753  0.49002363     0.06700
C728        C  0.97184057  0.11396515  0.49869526    -0.14000
S729        S  0.91501669  0.17195229  0.47781478    -0.30900
H730        H  0.96972943  0.18782360  0.45876862     0.10900
S731        S  0.02640767  0.10941195  0.50245913    -0.28000
H732        H  0.97240534  0.09348191  0.51082974     0.08200
H733        H  0.86483538  0.10735204  0.63345053     0.26600
H734        H  0.92566163  0.19679983  0.46455986     0.21400
H735        H  0.03948457  0.13131566  0.52270466     0.26700
H736        H  0.93377562  0.10632543  0.41619377     0.15600
C737        C  0.02507879  0.20930162  0.67535068    -0.11700
C738        C  0.03924989  0.22616551  0.70504098     0.14800
C739        C  0.06445411  0.23626339  0.69156891     0.01700
C740        C  0.07412689  0.23043188  0.64807949    -0.16100
C741        C  0.05896615  0.21514426  0.61741354    -0.10900
C742        C  0.03460532  0.20367763  0.63188596     0.08400
C743        C  0.02758407  0.23135114  0.75044943     0.09500
S744        S  0.08465421  0.25765967  0.72715710    -0.25200
H745        H  0.09286951  0.23922221  0.63716643     0.19700
S746        S  0.01491468  0.18147017  0.59675011    -0.30900
H747        H  0.00634301  0.20046478  0.68617643     0.10000
C748        C  0.00174873  0.24257425  0.75519679     0.03200
C749        C  0.98931173  0.24225086  0.79791171    -0.13200
C750        C  0.00264852  0.23183667  0.83600446    -0.08900
C751        C  0.02945243  0.22328571  0.83199149     0.06700
C752        C  0.04141666  0.22250156  0.78922195    -0.14000
S753        S  0.98430268  0.25655340  0.70668745    -0.30900
H754        H  0.96871327  0.24868004  0.80119388     0.10900
S755        S  0.04873146  0.21157635  0.88001008    -0.28000
H756        H  0.06130615  0.21406906  0.78594345     0.08200
H757        H  0.03680708  0.17084161  0.57291753     0.26600
H758        H  0.96170842  0.26565974  0.73048593     0.21400
H759        H  0.03631486  0.22856039  0.91164167     0.26700
H760        H  0.06309335  0.27011289  0.74923666     0.15600
C761        C  0.97639384  0.19870022  0.18632468    -0.11700
C762        C  0.98445112  0.22377390  0.20303179     0.14800
C763        C  0.97885248  0.24704228  0.17724278     0.01700
C764        C  0.96638698  0.24446487  0.13473665    -0.16100
C765        C  0.95943108  0.21930997  0.11721485    -0.10900
C766        C  0.96386830  0.19624431  0.14382011     0.08400
C767        C  0.00046536  0.22446200  0.24546698     0.09500
S768        S  0.98850685  0.28046029  0.19422640    -0.25200
H769        H  0.96347344  0.26215711  0.11389590     0.19700
S770        S  0.95621184  0.16307113  0.12359720    -0.30900
H771        H  0.98070328  0.18082178  0.20594085     0.10000
C772        C  0.98903906  0.23138729  0.28752903     0.03200
C773        C  0.00490961  0.23062676  0.32705854    -0.13200
C774        C  0.03180205  0.22241020  0.32545880    -0.08900
C775        C  0.04335698  0.21621565  0.28295002     0.06700
C776        C  0.02757142  0.21726285  0.24353884    -0.14000
S777        S  0.95398980  0.23995785  0.29101503    -0.30900
H778        H  0.99589926  0.23475814  0.35972746     0.10900
S779        S  0.07795857  0.20646428  0.27688379    -0.28000
H780        H  0.03638776  0.21210100  0.21108919     0.08200
H781        H  0.93358950  0.17062389  0.09809224     0.26600
H782        H  0.95374492  0.24561586  0.33786203     0.21400
H783        H  0.08735616  0.22033658  0.31536751     0.26700
H784        H  0.00131382  0.27465812  0.23555214     0.15600
C785        C  0.17881277  0.15309874  0.21869952    -0.11700
C786        C  0.19699810  0.15731535  0.25456992     0.14800
C787        C  0.22305347  0.14627164  0.25155358     0.01700
C788        C  0.22966688  0.13013735  0.21429055    -0.16100
C789        C  0.21100070  0.12528787  0.17956900    -0.10900
C790        C  0.18567615  0.13767350  0.18106406     0.08400
C791        C  0.18644475  0.16946166  0.29693772     0.09500
S792        S  0.24828864  0.15102219  0.29486047    -0.25200
H793        H  0.24902637  0.12036324  0.21337836     0.19700
S794        S  0.16062881  0.13303018  0.13730199    -0.30900
H795        H  0.15860956  0.16088813  0.22092251     0.10000
C796        C  0.17231880  0.19398065  0.29643551     0.03200
C797        C  0.15660001  0.20102942  0.33399204    -0.13200
C798        C  0.15552869  0.18452065  0.37248670    -0.08900
C799        C  0.17184095  0.16151103  0.37477967     0.06700
C800        C  0.18664167  0.15394054  0.33676455    -0.14000
S801        S  0.17338917  0.21573322  0.24733523    -0.30900
H802        H  0.14395016  0.21861445  0.33248007     0.10900
S803        S  0.17195979  0.13922822  0.42308914    -0.28000
H804        H  0.19710059  0.13494359  0.33736930     0.08200
H805        H  0.17886919  0.12987451  0.10143564     0.26600
H806        H  0.15483996  0.23471327  0.26313824     0.21400
H807        H  0.16994227  0.15951396  0.45590713     0.26700
H808        H  0.23832726  0.17561265  0.31066426     0.15600
C809        C  0.13815009  0.08823275  0.57389650    -0.11700
C810        C  0.14554308  0.06885187  0.54183779     0.14800
C811        C  0.13772637  0.07220643  0.49596965     0.01700
C812        C  0.12453853  0.09563532  0.48270266    -0.16100
C813        C  0.11819508  0.11573363  0.51430215    -0.10900
C814        C  0.12421222  0.11135332  0.56083687     0.08400
C815        C  0.16108454  0.04525079  0.55733921     0.09500
S816        S  0.14424493  0.04758982  0.45253157    -0.25200
H817        H  0.11983102  0.09844014  0.44699213     0.19700
S818        S  0.11409516  0.13396400  0.60531470    -0.30900
H819        H  0.14332035  0.08531282  0.60940111     0.10000
C820        C  0.18778754  0.04096612  0.54375520     0.03200
C821        C  0.20099192  0.01736347  0.55704176    -0.13200
C822        C  0.18825148  0.99819757  0.58458744    -0.08900
C823        C  0.16213668  0.00370527  0.60077917     0.06700
C824        C  0.14874495  0.02677987  0.58626570    -0.14000
S825        S  0.20518320  0.06575340  0.51022031    -0.30900
H826        H  0.22113801  0.01364934  0.54534793     0.10900
S827        S  0.14516355  0.98292244  0.64167270    -0.28000
H828        H  0.12850592  0.03048449  0.59786269     0.08200
H829        H  0.08955872  0.14089746  0.58466717     0.26600
H830        H  0.22894278  0.05107528  0.50430074     0.21400
H831        H  0.16831051  0.97767837  0.66772012     0.26700
H832        H  0.14355822  0.02515412  0.48137435     0.15600
C833        C  0.17366231  0.62078092  0.07130790    -0.11700
C834        C  0.15780606  0.61056572  0.03588414     0.14800
C835        C  0.16139795  0.58375869  0.02209163     0.01700
C836        C  0.18246007  0.56874441  0.04097022    -0.16100
C837        C  0.20052763  0.58026516  0.07207560    -0.10900
C838        C  0.19467718  0.60581873  0.08995424     0.08400
C839        C  0.14010430  0.62955005  0.01137976     0.09500
S840        S  0.14174216  0.56834618  0.97762811    -0.25200
H841        H  0.18607441  0.54884026  0.02838230     0.19700
S842        S  0.21406031  0.62073426  0.13522839    -0.30900
H843        H  0.17040284  0.64111548  0.08310118     0.10000
C844        C  0.11336840  0.63367835  0.02452721     0.03200
C845        C  0.09900764  0.65537844  0.00625649    -0.13200
C846        C  0.11139825  0.67378038  0.97698445    -0.08900
C847        C  0.13748075  0.66834901  0.96105651     0.06700
C848        C  0.15151093  0.64618943  0.97828018    -0.14000
S849        S  0.09831769  0.61246963  0.06705090    -0.30900
H850        H  0.07895367  0.65940315  0.01803336     0.10900
S851        S  0.15324749  0.69020865  0.92008101    -0.28000
H852        H  0.17202214  0.64262463  0.96796019     0.08200
H853        H  0.22299766  0.59631660  0.15381609     0.26600
H854        H  0.07309910  0.62499678  0.06714933     0.21400
H855        H  0.17793922  0.67670798  0.91836252     0.26700
H856        H  0.11961897  0.58559016  0.97957792     0.15600
C857        C  0.37711340  0.82368730  0.46889051    -0.11700
C858        C  0.38569360  0.83851092  0.50675805     0.14800
C859        C  0.41162941  0.83392673  0.52448111     0.01700
C860        C  0.42720496  0.81297459  0.50691967    -0.16100
C861        C  0.41702939  0.79578512  0.47324967    -0.10900
C862        C  0.39251309  0.80251617  0.45189327     0.08400
C863        C  0.36538273  0.85463499  0.53139399     0.09500
S864        S  0.42468106  0.85194313  0.57280837    -0.25200
H865        H  0.44626395  0.80849343  0.52278161     0.19700
S866        S  0.37906019  0.78355483  0.40490637    -0.30900
H867        H  0.35744797  0.82741815  0.45448771     0.10000
C868        C  0.36045555  0.88176795  0.52134029     0.03200
C869        C  0.33854769  0.89482605  0.54158525    -0.13200
C870        C  0.32066672  0.88091822  0.56994212    -0.08900
C871        C  0.32681910  0.85421317  0.58219328     0.06700
C872        C  0.34898776  0.84145084  0.56286221    -0.14000
S873        S  0.38112932  0.89923755  0.48082113    -0.30900
H874        H  0.33424211  0.91534046  0.53261798     0.10900
S875        S  0.30668180  0.83506955  0.62125120    -0.28000
H876        H  0.35291358  0.82066935  0.57108564     0.08200
H877        H  0.40379266  0.77302898  0.39075139     0.26600
H878        H  0.36687766  0.92352510  0.48144180     0.21400
H879        H  0.29695408  0.85728896  0.64542177     0.26700
H880        H  0.40978301  0.87542582  0.56576629     0.15600
C881        C  0.31485059  0.63075380  0.26990894    -0.11700
C882        C  0.32652772  0.65494632  0.25593097     0.14800
C883        C  0.32505124  0.66217487  0.20947251     0.01700
C884        C  0.31496101  0.64383559  0.17773327    -0.16100
C885        C  0.30573576  0.61850822  0.19138506    -0.10900
C886        C  0.30377665  0.61285787  0.23837893     0.08400
C887        C  0.34359046  0.66962102  0.28926392     0.09500
S888        S  0.33674708  0.69396134  0.18836299    -0.25200
H889        H  0.31588056  0.64881517  0.14190864     0.19700
S890        S  0.28761711  0.58278217  0.25873620    -0.30900
H891        H  0.31572008  0.62516142  0.30546142     0.10000
C892        C  0.33399204  0.67752062  0.33230032     0.03200
C893        C  0.35222373  0.68567571  0.36613861    -0.13200
C894        C  0.37986990  0.68664289  0.35755836    -0.08900
C895        C  0.38892388  0.68182008  0.31266674     0.06700
C896        C  0.37090951  0.67266675  0.27965787    -0.14000
S897        S  0.29860209  0.67665864  0.34451942    -0.30900
H898        H  0.34503401  0.68987922  0.40005370     0.10900
S899        S  0.42318768  0.68671175  0.29515272    -0.28000
H900        H  0.37845883  0.66707142  0.24653158     0.08200
H901        H  0.28684838  0.59010770  0.30490127     0.26600
H902        H  0.30025744  0.68844658  0.38785176     0.21400
H903        H  0.42804692  0.70832135  0.32471473     0.26700
H904        H  0.33325940  0.70790392  0.22942782     0.15600
C905        C  0.17589369  0.34422007  0.57831526    -0.11700
C906        C  0.15983936  0.35256264  0.54159739     0.14800
C907        C  0.16481593  0.37773854  0.52145514     0.01700
C908        C  0.18736114  0.39253819  0.53496929    -0.16100
C909        C  0.20487570  0.38292516  0.56879721    -0.10900
C910        C  0.19811562  0.35927245  0.59242175     0.08400
C911        C  0.14115666  0.33279162  0.52092422     0.09500
S912        S  0.14425106  0.39101315  0.47619506    -0.25200
H913        H  0.19219303  0.41081470  0.51690010     0.19700
S914        S  0.21761612  0.34696489  0.63983288    -0.30900
H915        H  0.17187775  0.32519004  0.59461428     0.10000
C916        C  0.14896252  0.31766762  0.48273579     0.03200
C917        C  0.13298062  0.29620328  0.46810297    -0.13200
C918        C  0.10914950  0.28948957  0.49055614    -0.08900
C919        C  0.10047786  0.30587060  0.52691814     0.06700
C920        C  0.11670976  0.32704793  0.54208592    -0.14000
S921        S  0.18056655  0.32413225  0.45514479    -0.30900
H922        H  0.13992125  0.28345313  0.44080661     0.10900
S923        S  0.07062432  0.29871060  0.55876272    -0.28000
H924        H  0.11070001  0.33854597  0.57152775     0.08200
H925        H  0.22774599  0.37206486  0.65303971     0.26600
H926        H  0.17782271  0.30487019  0.42060782     0.21400
H927        H  0.05426408  0.29680080  0.51985223     0.26700
H928        H  0.12076606  0.37733816  0.48842980     0.15600
C929        C  0.40077391  0.57748104  0.54655344    -0.11700
C930        C  0.37321153  0.57869868  0.55485871     0.14800
C931        C  0.35980278  0.60347841  0.55212492     0.01700
C932        C  0.37390398  0.62617715  0.53833081    -0.16100
C933        C  0.40128373  0.62486047  0.52760488    -0.10900
C934        C  0.41502003  0.60029261  0.53346739     0.08400
C935        C  0.35877664  0.55355153  0.56383369     0.09500
S936        S  0.32452090  0.60720891  0.56356925    -0.25200
H937        H  0.36306173  0.64484690  0.53425948     0.19700
S938        S  0.45058030  0.59665692  0.52525585    -0.30900
H939        H  0.41114552  0.55852478  0.54955986     0.10000
C940        C  0.34299140  0.54131684  0.52988347     0.03200
C941        C  0.32953814  0.51742768  0.53977980    -0.13200
C942        C  0.33181464  0.50555620  0.58285809    -0.08900
C943        C  0.34721140  0.51819190  0.61706203     0.06700
C944        C  0.36083446  0.54185372  0.60699728    -0.14000
S945        S  0.34088675  0.55553690  0.47347812    -0.30900
H946        H  0.31788075  0.50753448  0.51358303     0.10900
S947        S  0.34947827  0.50558166  0.67448331    -0.28000
H948        H  0.37271866  0.55150617  0.63316974     0.08200
H949        H  0.45702533  0.62212523  0.54246222     0.26600
H950        H  0.31942447  0.53962328  0.45836843     0.21400
H951        H  0.32304705  0.49592460  0.67608357     0.26700
H952        H  0.32244150  0.58580358  0.59438229     0.15600
C953        C  0.24801828  0.48161963  0.28518427    -0.11700
C954        C  0.26848116  0.46380391  0.29800839     0.14800
C955        C  0.28953430  0.45844422  0.26770658     0.01700
C956        C  0.29078892  0.47239304  0.22678854    -0.16100
C957        C  0.27137496  0.49153360  0.21494737    -0.10900
C958        C  0.24917849  0.49554286  0.24363402     0.08400
C959        C  0.27003378  0.45472301  0.34562658     0.09500
S960        S  0.31668114  0.43586289  0.28099292    -0.25200
H961        H  0.30765148  0.46885174  0.20446050     0.19700
S962        S  0.22376859  0.51997256  0.22968885    -0.30900
H963        H  0.23204153  0.48569568  0.30892722     0.10000
C964        C  0.28495496  0.46945417  0.37769762     0.03200
C965        C  0.28697491  0.46008067  0.42239361    -0.13200
C966        C  0.27465435  0.43607499  0.43552564    -0.08900
C967        C  0.25950695  0.42143222  0.40339066     0.06700
C968        C  0.25742416  0.43088682  0.35865034    -0.14000
S969        S  0.30130353  0.50031314  0.36171912    -0.30900
H970        H  0.29818941  0.47147293  0.44732294     0.10900
S971        S  0.24155542  0.39130944  0.41777358    -0.28000
H972        H  0.24592428  0.41965773  0.33382611     0.08200
H973        H  0.20796702  0.51602745  0.26859636     0.26600
H974        H  0.31635669  0.50326523  0.40192184     0.21400
H975        H  0.23431982  0.39949224  0.46177057     0.26700
H976        H  0.30183396  0.41852347  0.30874301     0.15600
C977        C  0.25269131  0.50402529  0.76751757    -0.11700
C978        C  0.26378632  0.49364880  0.80759762     0.14800
C979        C  0.27537199  0.46790338  0.80766383     0.01700
C980        C  0.27756267  0.45398184  0.76678877    -0.16100
C981        C  0.26803719  0.46500758  0.72586645    -0.10900
C982        C  0.25504584  0.49018490  0.72648990     0.08400
C983        C  0.26503168  0.51082423  0.84805012     0.09500
S984        S  0.28894693  0.45237232  0.85827013    -0.25200
H985        H  0.28755326  0.43472040  0.76666227     0.19700
S986        S  0.24389203  0.50714456  0.67571852    -0.30900
H987        H  0.24376626  0.52378475  0.76767214     0.10000
C988        C  0.28945731  0.52211014  0.86276607     0.03200
C989        C  0.29077016  0.53445007  0.90547199    -0.13200
C990        C  0.26798618  0.53590404  0.93288281    -0.08900
C991        C  0.24310458  0.52691779  0.91596049     0.06700
C992        C  0.24185662  0.51429356  0.87379039    -0.14000
S993        S  0.31907165  0.51973547  0.82796539    -0.30900
H994        H  0.30977886  0.54146571  0.91869076     0.10900
S995        S  0.21258898  0.53004665  0.94771179    -0.28000
H996        H  0.22300428  0.50615841  0.86184050     0.08200
H997        H  0.26809051  0.50314354  0.65242175     0.26600
H998        H  0.33620672  0.53393555  0.85736897     0.21400
H999        H  0.22027740  0.55393880  0.96936051     0.26700
H1000       H  0.27177924  0.46504764  0.88925498     0.15600
C1001       C  0.38382128  0.14116688  0.99064314    -0.11700
C1002       C  0.38958169  0.13189402  0.03471208     0.14800
C1003       C  0.41196451  0.14230141  0.05825880     0.01700
C1004       C  0.42676604  0.16307841  0.03856979    -0.16100
C1005       C  0.41927503  0.17417841  0.99645886    -0.10900
C1006       C  0.39829741  0.16226259  0.97140080     0.08400
C1007       C  0.36886201  0.11554945  0.05742895     0.09500
S1008       S  0.42081129  0.13229053  0.11538064    -0.25200
H1009       H  0.44265089  0.17234698  0.05827767     0.19700
S1010       S  0.38794526  0.17431802  0.91620227    -0.30900
H1011       H  0.36666635  0.13318853  0.97241176     0.10000
C1012       C  0.34732960  0.12815457  0.07949803     0.03200
C1013       C  0.32492580  0.11303498  0.09190371    -0.13200
C1014       C  0.32360092  0.08540488  0.08322545    -0.08900
C1015       C  0.34660898  0.07239059  0.06592253     0.06700
C1016       C  0.36869169  0.08768662  0.05207420    -0.14000
S1017       S  0.34744539  0.16394174  0.08839149    -0.30900
H1018       H  0.30757058  0.12308444  0.10578664     0.10900
S1019       S  0.34820111  0.03683716  0.05703998    -0.28000
H1020       H  0.38545580  0.07795016  0.03568650     0.08200
H1021       H  0.41266426  0.18594903  0.90480782     0.26600
H1022       H  0.32269568  0.16547540  0.11085384     0.21400
H1023       H  0.33933683  0.03065161  0.10115062     0.26700
H1024       H  0.40732131  0.10765498  0.11531480     0.15600
C1025       C  0.33761765  0.30778297  0.83719680    -0.11700
C1026       C  0.33751258  0.29400432  0.79564729     0.14800
C1027       C  0.35242772  0.27001593  0.79199066     0.01700
C1028       C  0.36970144  0.26242766  0.82741267    -0.16100
C1029       C  0.37113069  0.27736884  0.86765324    -0.10900
C1030       C  0.35364662  0.29930087  0.87351772     0.08400
C1031       C  0.32726216  0.30830325  0.75476060     0.09500
S1032       S  0.35136806  0.24922027  0.74192923    -0.25200
H1033       H  0.38283161  0.24536552  0.82290912     0.19700
S1034       S  0.35363841  0.31946969  0.92424341    -0.30900
H1035       H  0.32662185  0.32636246  0.84041567     0.10000
C1036       C  0.30121069  0.31932423  0.75207919     0.03200
C1037       C  0.29476217  0.33693712  0.71624583    -0.13200
C1038       C  0.31368382  0.34311494  0.68276358    -0.08900
C1039       C  0.33901768  0.33072910  0.68405252     0.06700
C1040       C  0.34566607  0.31397148  0.72021094    -0.14000
S1041       S  0.27639597  0.31133702  0.79441995    -0.30900
H1042       H  0.27538628  0.34665789  0.71512150     0.10900
S1043       S  0.36458968  0.33717781  0.64248715    -0.28000
H1044       H  0.36585050  0.30609533  0.72231502     0.08200
H1045       H  0.35110590  0.29750461  0.95382115     0.26600
H1046       H  0.25576464  0.32733776  0.77625645     0.21400
H1047       H  0.34694613  0.33934784  0.60531451     0.26700
H1048       H  0.32594179  0.25781523  0.72714820     0.15600
C1049       C  0.38601655  0.37573883  0.06172850    -0.11700
C1050       C  0.38012168  0.39489071  0.02819984     0.14800
C1051       C  0.38948860  0.39082365  0.98351266     0.01700
C1052       C  0.40215024  0.36674055  0.97252496    -0.16100
C1053       C  0.40690859  0.34680852  0.00552171    -0.10900
C1054       C  0.39983669  0.35217442  0.05122487     0.08400
C1055       C  0.36436155  0.41885940  0.04113799     0.09500
S1056       S  0.38600343  0.41547768  0.93892473    -0.25200
H1057       H  0.40793350  0.36346106  0.93750566     0.19700
S1058       S  0.40858856  0.33046457  0.09801074    -0.30900
H1059       H  0.37982618  0.37923273  0.09652456     0.10000
C1060       C  0.33861847  0.42389337  0.02300544     0.03200
C1061       C  0.32488142  0.44724385  0.03564492    -0.13200
C1062       C  0.33588965  0.46524651  0.06733781    -0.08900
C1063       C  0.36088616  0.45898686  0.08778900     0.06700
C1064       C  0.37503953  0.43636415  0.07365251    -0.14000
S1065       S  0.32279180  0.40013825  0.98517080    -0.30900
H1066       H  0.30550540  0.45153019  0.02067728     0.10900
S1067       S  0.37509784  0.47785115  0.13423101    -0.28000
H1068       H  0.39437050  0.43202737  0.08886784     0.08200
H1069       H  0.43418023  0.32428536  0.08111057     0.26600
H1070       H  0.29846224  0.41399937  0.97980055     0.21400
H1071       H  0.35048677  0.48178147  0.15636019     0.26700
H1072       H  0.38596075  0.43797448  0.96755779     0.15600
C1073       C  0.87898430  0.32427103  0.98146748    -0.11700
C1074       C  0.88517940  0.33553369  0.02399817     0.14800
C1075       C  0.90797933  0.32635527  0.04794730     0.01700
C1076       C  0.92284500  0.30497536  0.03054634    -0.16100
C1077       C  0.91541386  0.29240829  0.98971841    -0.10900
C1078       C  0.89397429  0.30301029  0.96394521     0.08400
C1079       C  0.86545519  0.35398418  0.04478963     0.09500
S1080       S  0.91812252  0.33994498  0.10213846    -0.25200
H1081       H  0.93918920  0.29688160  0.05069473     0.19700
S1082       S  0.88424862  0.28958975  0.90939525    -0.30900
H1083       H  0.86160651  0.33128629  0.96274787     0.10000
C1084       C  0.85918636  0.37895895  0.02512597     0.03200
C1085       C  0.83724537  0.39357132  0.04152235    -0.13200
C1086       C  0.82128407  0.38352183  0.07689012    -0.08900
C1087       C  0.82917614  0.35969802  0.09918213     0.06700
C1088       C  0.85093415  0.34508570  0.08264317    -0.14000
S1089       S  0.87834412  0.39161318  0.97782672    -0.30900
H1090       H  0.83120825  0.41175521  0.02424946     0.10900
S1091       S  0.81167169  0.34645190  0.14777553    -0.28000
H1092       H  0.85593498  0.32607146  0.09829610     0.08200
H1093       H  0.90961802  0.27923867  0.89849360     0.26600
H1094       H  0.86530114  0.41649392  0.97441174     0.21400
H1095       H  0.80158513  0.37123285  0.16257436     0.26700
H1096       H  0.90713972  0.36553863  0.09512231     0.15600
C1097       C  0.60667808  0.35238079  0.05596041    -0.11700
C1098       C  0.60144105  0.35304288  0.00917352     0.14800
C1099       C  0.62066328  0.36400181  0.97939638     0.01700
C1100       C  0.64483975  0.37374739  0.99723646    -0.16100
C1101       C  0.65025263  0.37278851  0.04419480    -0.10900
C1102       C  0.63097820  0.36149331  0.07365501     0.08400
C1103       C  0.57711072  0.33920776  0.99295800     0.09500
S1104       S  0.61596636  0.36555196  0.91851187    -0.25200
H1105       H  0.65945844  0.38225995  0.97432903     0.19700
S1106       S  0.63697229  0.35587864  0.13347712    -0.30900
H1107       H  0.59222750  0.34330006  0.07867050     0.10000
C1108       C  0.57839238  0.31258300  0.97765351     0.03200
C1109       C  0.55465957  0.29882492  0.96781306    -0.13200
C1110       C  0.52951999  0.31105565  0.97314681    -0.08900
C1111       C  0.52838472  0.33794258  0.98845607     0.06700
C1112       C  0.55218542  0.35170875  0.99783785    -0.14000
S1113       S  0.61027489  0.29580035  0.97232644    -0.30900
H1114       H  0.55569851  0.27832245  0.95603374     0.10900
S1115       S  0.49746246  0.35539673  0.99947771    -0.28000
H1116       H  0.55127803  0.37202666  0.01056413     0.08200
H1117       H  0.66366081  0.34751765  0.12783489     0.26600
H1118       H  0.60028363  0.27158170  0.95484657     0.21400
H1119       H  0.48476187  0.33340705  0.02003592     0.26700
H1120       H  0.58796929  0.36300964  0.91802569     0.15600
C1121       C  0.66953865  0.11316256  0.57214293    -0.11700
C1122       C  0.65424097  0.10174761  0.53705248     0.14800
C1123       C  0.66052548  0.07572113  0.52183642     0.01700
C1124       C  0.68334266  0.06275191  0.53919859    -0.16100
C1125       C  0.70023656  0.07542089  0.57092714    -0.10900
C1126       C  0.69253070  0.10038156  0.58903609     0.08400
C1127       C  0.63558830  0.11976938  0.51230376     0.09500
S1128       S  0.64177465  0.05905340  0.47763929    -0.25200
H1129       H  0.68920820  0.04366800  0.52484260     0.19700
S1130       S  0.71279568  0.11668885  0.63188262    -0.30900
H1131       H  0.66446220  0.13303452  0.58396668     0.10000
C1132       C  0.60919166  0.12421966  0.52708873     0.03200
C1133       C  0.59492274  0.14650267  0.51048746    -0.13200
C1134       C  0.60703857  0.16495040  0.48082555    -0.08900
C1135       C  0.63233943  0.15858547  0.46224835     0.06700
C1136       C  0.64631115  0.13619292  0.47829000    -0.14000
S1137       S  0.59458929  0.10275915  0.56966804    -0.30900
H1138       H  0.57529759  0.15087303  0.52393290     0.10900
S1139       S  0.64852006  0.17907017  0.41991790    -0.28000
H1140       H  0.66647492  0.13252276  0.46628060     0.08200
H1141       H  0.69711301  0.13995411  0.63580374     0.26600
H1142       H  0.56908290  0.11471354  0.56945369     0.21400
H1143       H  0.62467418  0.18950669  0.40136545     0.26700
H1144       H  0.61792774  0.07358179  0.48298233     0.15600
C1145       C  0.47714863  0.34593471  0.52150433    -0.11700
C1146       C  0.45120414  0.33532933  0.51820414     0.14800
C1147       C  0.44808708  0.30817412  0.50569250     0.01700
C1148       C  0.47061075  0.29286505  0.49437021    -0.16100
C1149       C  0.49657082  0.30360198  0.49682992    -0.10900
C1150       C  0.49975259  0.33020683  0.51271795     0.08400
C1151       C  0.42778538  0.35301042  0.52728714     0.09500
S1152       S  0.41594829  0.29175699  0.50401857    -0.25200
H1153       H  0.46775340  0.27239252  0.48328944     0.19700
S1154       S  0.53197860  0.34493560  0.52488199    -0.30900
H1155       H  0.47984656  0.36657537  0.53178145     0.10000
C1156       C  0.42400081  0.36533320  0.56992365     0.03200
C1157       C  0.40060782  0.38016012  0.57776412    -0.13200
C1158       C  0.38032771  0.38248563  0.54446136    -0.08900
C1159       C  0.38523841  0.37187337  0.50067046     0.06700
C1160       C  0.40870806  0.35721428  0.49273744    -0.14000
S1161       S  0.44762462  0.36029841  0.61596761    -0.30900
H1162       H  0.39731405  0.38833525  0.61129549     0.10900
S1163       S  0.36269240  0.37657555  0.45330262    -0.28000
H1164       H  0.41199353  0.34864588  0.45936161     0.08200
H1165       H  0.54337132  0.32119185  0.54209562     0.26600
H1166       H  0.43568231  0.37795534  0.64708490     0.21400
H1167       H  0.35497885  0.40258732  0.46607288     0.26700
H1168       H  0.40475015  0.30630353  0.54017051     0.15600
C1169       C  0.54633565  0.20842973  0.68411705    -0.11700
C1170       C  0.54369690  0.23167457  0.71018194     0.14800
C1171       C  0.55468433  0.25599125  0.69418001     0.01700
C1172       C  0.56586366  0.25704153  0.65067603    -0.16100
C1173       C  0.56666987  0.23417751  0.62329097    -0.10900
C1174       C  0.55786560  0.20943269  0.64096245     0.08400
C1175       C  0.52650082  0.23084479  0.75083299     0.09500
S1176       S  0.55317394  0.28668804  0.72627482    -0.25200
H1177       H  0.57251823  0.27609456  0.63713566     0.19700
S1178       S  0.55955714  0.17881562  0.60885980    -0.30900
H1179       H  0.53821350  0.18971035  0.69651362     0.10000
C1180       C  0.50069246  0.24215904  0.74972751     0.03200
C1181       C  0.48620262  0.24437098  0.79012280    -0.13200
C1182       C  0.49670442  0.23499655  0.83160644    -0.08900
C1183       C  0.52157430  0.22132124  0.83161516     0.06700
C1184       C  0.53631230  0.21963304  0.79129189    -0.14000
S1185       S  0.48652112  0.25447007  0.69700266    -0.30900
H1186       H  0.46697115  0.25439931  0.78975822     0.10900
S1187       S  0.53673719  0.20792828  0.88240977    -0.28000
H1188       H  0.55594600  0.21041720  0.79177805     0.08200
H1189       H  0.58254820  0.18609759  0.58434845     0.26600
H1190       H  0.46169027  0.26248579  0.71478159     0.21400
H1191       H  0.51468460  0.19142812  0.89222535     0.26700
H1192       H  0.55296246  0.27461513  0.76948217     0.15600
C1193       C  0.48107622  0.24156150  0.29179852    -0.11700
C1194       C  0.49521194  0.23299577  0.25343537     0.14800
C1195       C  0.52158831  0.22306849  0.25882266     0.01700
C1196       C  0.53390734  0.22400084  0.30167273    -0.16100
C1197       C  0.52013400  0.23391454  0.33944376    -0.10900
C1198       C  0.49313379  0.24176010  0.33474893     0.08400
C1199       C  0.48357366  0.23841950  0.20794958     0.09500
S1200       S  0.54093214  0.21022465  0.21200524    -0.25200
H1201       H  0.55468085  0.21806909  0.30517614     0.19700
S1202       S  0.47376130  0.25415782  0.38178448    -0.30900
H1203       H  0.46089966  0.24931565  0.28792188     0.10000
C1204       C  0.45991665  0.22592720  0.19238559     0.03200
C1205       C  0.45042586  0.23150667  0.14830079    -0.13200
C1206       C  0.46412754  0.24940207  0.11983524    -0.08900
C1207       C  0.48670560  0.26322152  0.13686345     0.06700
C1208       C  0.49628181  0.25740172  0.18038041    -0.14000
S1209       S  0.44284428  0.20165378  0.22733999    -0.30900
H1210       H  0.43322856  0.22081488  0.13506236     0.10900
S1211       S  0.50415040  0.28854005  0.10469385    -0.28000
H1212       H  0.51389101  0.26776373  0.19295205     0.08200
H1213       H  0.48632869  0.23815337  0.41495093     0.26600
H1214       H  0.42081402  0.19776651  0.19809362     0.21400
H1215       H  0.48151341  0.29723125  0.08014222     0.26700
H1216       H  0.51888762  0.20196225  0.18561836     0.15600
C1217       C  0.70589303  0.29918458  0.22131352    -0.11700
C1218       C  0.69397742  0.30828464  0.26153685     0.14800
C1219       C  0.69441180  0.33586290  0.27150934     0.01700
C1220       C  0.70528041  0.35375442  0.24034023    -0.16100
C1221       C  0.71505669  0.34520828  0.19791686    -0.10900
C1222       C  0.71675575  0.31724124  0.18971184     0.08400
C1223       C  0.67987249  0.28938403  0.29196478     0.09500
S1224       S  0.67975262  0.34990137  0.32214022    -0.25200
H1225       H  0.70431190  0.37484898  0.24846563     0.19700
S1226       S  0.73234713  0.30311978  0.14014888    -0.30900
H1227       H  0.70628977  0.27791876  0.21416052     0.10000
C1228       C  0.65434508  0.27952130  0.28029244     0.03200
C1229       C  0.63788382  0.26908966  0.31447682    -0.13200
C1230       C  0.64624946  0.26854987  0.36030455    -0.08900
C1231       C  0.67323657  0.27523979  0.37050866     0.06700
C1232       C  0.68960576  0.28566565  0.33629360    -0.14000
S1233       S  0.64143013  0.28314781  0.22307721    -0.30900
H1234       H  0.61758602  0.26327282  0.30592657     0.10900
S1235       S  0.68729552  0.27403746  0.42696459    -0.28000
H1236       H  0.70941997  0.29291681  0.34506922     0.08200
H1237       H  0.75421254  0.32085083  0.14135161     0.26600
H1238       H  0.61722211  0.26939047  0.23000715     0.21400
H1239       H  0.67999593  0.24712726  0.43372744     0.26700
H1240       H  0.65701715  0.33332653  0.32198266     0.15600
C1241       C  0.86243487  0.58291046  0.53014806    -0.11700
C1242       C  0.86422861  0.60955904  0.54479140     0.14800
C1243       C  0.84582219  0.61891274  0.57739207     0.01700
C1244       C  0.82463985  0.60250307  0.59105827    -0.16100
C1245       C  0.82117077  0.57657621  0.57331552    -0.10900
C1246       C  0.84146617  0.56619029  0.54463423     0.08400
C1247       C  0.88232792  0.62848258  0.52079764     0.09500
S1248       S  0.84682683  0.65250222  0.59976138    -0.25200
H1249       H  0.80977144  0.61074320  0.61383410     0.19700
S1250       S  0.84046589  0.53284967  0.52169153    -0.30900
H1251       H  0.87669080  0.57549505  0.50550776     0.10000
C1252       C  0.90933937  0.63209508  0.53350713     0.03200
C1253       C  0.92388037  0.65378410  0.51535341    -0.13200
C1254       C  0.91187430  0.67182951  0.48459537    -0.08900
C1255       C  0.88570997  0.66627987  0.46847430     0.06700
C1256       C  0.87120486  0.64498854  0.48706809    -0.14000
S1257       S  0.92441360  0.61061246  0.57582887    -0.30900
H1258       H  0.94384177  0.65794707  0.52799749     0.10900
S1259       S  0.86933310  0.68629783  0.42543338    -0.28000
H1260       H  0.85065160  0.64184823  0.47636022     0.08200
H1261       H  0.83715007  0.52079826  0.56458626     0.26600
H1262       H  0.95038892  0.62132451  0.57283517     0.21400
H1263       H  0.89305333  0.69506757  0.40453695     0.26700
H1264       H  0.87465715  0.65586443  0.59617209     0.15600
C1265       C  0.64228266  0.38071092  0.49010385    -0.11700
C1266       C  0.64726959  0.38522429  0.53630317     0.14800
C1267       C  0.63990284  0.36562090  0.56853536     0.01700
C1268       C  0.62781441  0.34187808  0.55364692    -0.16100
C1269       C  0.62278241  0.33723573  0.50722174    -0.10900
C1270       C  0.63069548  0.35687260  0.47511945     0.08400
C1271       C  0.66141766  0.41007145  0.54890717     0.09500
S1272       S  0.64566382  0.36938851  0.62886293    -0.25200
H1273       H  0.62208543  0.32699951  0.57862890     0.19700
S1274       S  0.62849820  0.35217081  0.41443168    -0.30900
H1275       H  0.64844011  0.39553546  0.46530147     0.10000
C1276       C  0.68906120  0.41012540  0.55808838     0.03200
C1277       C  0.70203630  0.43440619  0.56685646    -0.13200
C1278       C  0.68785859  0.45875533  0.56822646    -0.08900
C1279       C  0.65994404  0.45847217  0.55863644     0.06700
C1280       C  0.64718125  0.43419124  0.54909340    -0.14000
S1281       S  0.70793125  0.37929417  0.55839239    -0.30900
H1282       H  0.72337670  0.43422385  0.57336810     0.10900
S1283       S  0.63934616  0.48810854  0.55656314    -0.28000
H1284       H  0.62592864  0.43407905  0.54134608     0.08200
H1285       H  0.63846746  0.32582639  0.41570620     0.26600
H1286       H  0.73088957  0.38964733  0.57999058     0.21400
H1287       H  0.65803766  0.50331652  0.53199174     0.26700
H1288       H  0.64728513  0.39743342  0.62969150     0.15600
C1289       C  0.57949611  0.65409744  0.50572179    -0.11700
C1290       C  0.57654385  0.62785452  0.52201393     0.14800
C1291       C  0.55057080  0.61727296  0.52726822     0.01700
C1292       C  0.52828218  0.63313606  0.51677261    -0.16100
C1293       C  0.53101659  0.65933890  0.49972414    -0.10900
C1294       C  0.55718846  0.66971271  0.49371010     0.08400
C1295       C  0.60084723  0.61239243  0.53478947     0.09500
S1296       S  0.54446780  0.58351504  0.54640815    -0.25200
H1297       H  0.50851374  0.62464865  0.52128571     0.19700
S1298       S  0.56373021  0.70190244  0.46844736    -0.30900
H1299       H  0.59940804  0.66227274  0.50145891     0.10000
C1300       C  0.61888246  0.60283068  0.50184922     0.03200
C1301       C  0.64221354  0.58933247  0.51581833    -0.13200
C1302       C  0.64781586  0.58478296  0.56215196    -0.08900
C1303       C  0.62907071  0.59370638  0.59491675     0.06700
C1304       C  0.60607336  0.60752425  0.58090213    -0.14000
S1305       S  0.61193874  0.60740106  0.44199324    -0.30900
H1306       H  0.65622395  0.58233674  0.49050995     0.10900
S1307       S  0.63412907  0.58988779  0.65524113    -0.28000
H1308       H  0.59219603  0.61483673  0.60626467     0.08200
H1309       H  0.54524079  0.69844157  0.43265164     0.26600
H1310       H  0.63528141  0.59495597  0.42578386     0.21400
H1311       H  0.63185349  0.56183900  0.65329277     0.26700
H1312       H  0.56793506  0.57232941  0.52830449     0.15600
C1313       C  0.74239998  0.51316648  0.26410557    -0.11700
C1314       C  0.75465227  0.50155884  0.30224277     0.14800
C1315       C  0.76712169  0.47627319  0.29796063     0.01700
C1316       C  0.76538734  0.46231378  0.25668207    -0.16100
C1317       C  0.75196635  0.47340391  0.21919156    -0.10900
C1318       C  0.74128438  0.49953354  0.22259905     0.08400
C1319       C  0.75055090  0.51407109  0.34734357     0.09500
S1320       S  0.78428444  0.46030617  0.34476127    -0.25200
H1321       H  0.77364721  0.44230628  0.25434557     0.19700
S1322       S  0.72528480  0.51612792  0.17535900    -0.30900
H1323       H  0.73287476  0.53256517  0.26711198     0.10000
C1324       C  0.76594543  0.53590715  0.36292649     0.03200
C1325       C  0.76264356  0.54508545  0.40785504    -0.13200
C1326       C  0.74410699  0.53283893  0.43701298    -0.08900
C1327       C  0.72746509  0.51226172  0.41996940     0.06700
C1328       C  0.73100405  0.50301666  0.37565235    -0.14000
S1329       S  0.79091860  0.55077295  0.32667987    -0.30900
H1330       H  0.77551926  0.56067849  0.42109494     0.10900
S1331       S  0.70182519  0.49642312  0.45365914    -0.28000
H1332       H  0.71873537  0.48663520  0.36332576     0.08200
H1333       H  0.74327388  0.50609748  0.14297001     0.26600
H1334       H  0.79915289  0.57074492  0.35737425     0.21400
H1335       H  0.69682078  0.51866704  0.48162393     0.26700
H1336       H  0.79251969  0.48410567  0.36608814     0.15600
C1337       C  0.74851689  0.44462539  0.76633806    -0.11700
C1338       C  0.76395951  0.45631378  0.80075022     0.14800
C1339       C  0.77914878  0.47951255  0.79101953     0.01700
C1340       C  0.77647407  0.49192980  0.74845500    -0.16100
C1341       C  0.75916248  0.48142004  0.71541295    -0.10900
C1342       C  0.74605516  0.45685968  0.72385024     0.08400
C1343       C  0.75995241  0.44664079  0.84774970     0.09500
S1344       S  0.80045136  0.49534971  0.83270163    -0.25200
H1345       H  0.78658760  0.51075159  0.74219221     0.19700
S1346       S  0.72474776  0.44098368  0.68239890    -0.30900
H1347       H  0.73702123  0.42672270  0.77349689     0.10000
C1348       C  0.74426258  0.46153938  0.87826683     0.03200
C1349       C  0.74076568  0.45217095  0.92258951    -0.13200
C1350       C  0.75196914  0.42779515  0.93715578    -0.08900
C1351       C  0.76621583  0.41200217  0.90551637     0.06700
C1352       C  0.77029423  0.42172654  0.86126890    -0.14000
S1353       S  0.72820309  0.49234303  0.86065889    -0.30900
H1354       H  0.72933684  0.46408951  0.94634487     0.10900
S1355       S  0.78084464  0.38022829  0.92020815    -0.28000
H1356       H  0.78168104  0.40991285  0.83730668     0.08200
H1357       H  0.74063309  0.44888182  0.64546152     0.26600
H1358       H  0.71404481  0.49700161  0.90113042     0.21400
H1359       H  0.75607004  0.36884016  0.93201828     0.26700
H1360       H  0.80522554  0.47222163  0.85878485     0.15600
C1361       C  0.64595201  0.82218576  0.99114915    -0.11700
C1362       C  0.63670641  0.83509386  0.03039869     0.14800
C1363       C  0.61183607  0.82734319  0.04899150     0.01700
C1364       C  0.59791454  0.80563806  0.02976062    -0.16100
C1365       C  0.60849832  0.79118085  0.99290562    -0.10900
C1366       C  0.63227715  0.80040248  0.97238437     0.08400
C1367       C  0.65595298  0.85304672  0.05399202     0.09500
S1368       S  0.59795037  0.84244146  0.09937306    -0.25200
H1369       H  0.57980047  0.79864758  0.04605879     0.19700
S1370       S  0.64701929  0.78429607  0.92370979    -0.30900
H1371       H  0.66494617  0.82815050  0.97655303     0.10000
C1372       C  0.67688370  0.84192885  0.08011100     0.03200
C1373       C  0.69933745  0.85755466  0.09077031    -0.13200
C1374       C  0.70137708  0.88432084  0.07629688    -0.08900
C1375       C  0.67890565  0.89627762  0.05456919     0.06700
C1376       C  0.65659231  0.88040935  0.04331430    -0.14000
S1377       S  0.67591373  0.80709467  0.09668388    -0.30900
H1378       H  0.71614229  0.84841737  0.10826060     0.10900
S1379       S  0.67767024  0.93097380  0.03773987    -0.28000
H1380       H  0.64034072  0.88905704  0.02361503     0.08200
H1381       H  0.62281274  0.77422523  0.90608767     0.26600
H1382       H  0.70060551  0.80665399  0.11988841     0.21400
H1383       H  0.70410990  0.93274964  0.02247908     0.26700
H1384       H  0.61357987  0.86576099  0.09936142     0.15600
C1385       C  0.46787923  0.62637534  0.02319627    -0.11700
C1386       C  0.44435130  0.63266788  0.99905742     0.14800
C1387       C  0.44524370  0.65277183  0.96511806     0.01700
C1388       C  0.46967410  0.66513047  0.95497988    -0.16100
C1389       C  0.49316162  0.65866163  0.97897293    -0.10900
C1390       C  0.49205579  0.63944339  0.01415740     0.08400
C1391       C  0.41911619  0.61916149  0.01268687     0.09500
S1392       S  0.41601109  0.66436258  0.93457425    -0.25200
H1393       H  0.47031560  0.68020729  0.92843124     0.19700
S1394       S  0.52032674  0.63175805  0.05036324    -0.30900
H1395       H  0.46722834  0.61157564  0.05015803     0.10000
C1396       C  0.40462014  0.60219977  0.98308837     0.03200
C1397       C  0.38083497  0.59017834  0.99826906    -0.13200
C1398       C  0.37173521  0.59409286  0.04283981    -0.08900
C1399       C  0.38635471  0.61090831  0.07249348     0.06700
C1400       C  0.40980520  0.62323069  0.05706552    -0.14000
S1401       S  0.41694803  0.59475762  0.92688007    -0.30900
H1402       H  0.36962905  0.57711341  0.97582727     0.10900
S1403       S  0.37469379  0.61773571  0.12945475    -0.28000
H1404       H  0.42099066  0.63628236  0.07957744     0.08200
H1405       H  0.53179075  0.65743783  0.04909470     0.26600
H1406       H  0.39385211  0.58148651  0.91119775     0.21400
H1407       H  0.39430118  0.63677695  0.14101252     0.26700
H1408       H  0.39740484  0.65887186  0.96902178     0.15600
C1409       C  0.51492585  0.74096517  0.27042828    -0.11700
C1410       C  0.52886730  0.71857086  0.25411528     0.14800
C1411       C  0.52990837  0.69505439  0.28049210     0.01700
C1412       C  0.51607700  0.69397355  0.32144825    -0.16100
C1413       C  0.50120246  0.71592036  0.33733248    -0.10900
C1414       C  0.50085176  0.73982947  0.31156813     0.08400
C1415       C  0.53864284  0.71872071  0.20687177     0.09500
S1416       S  0.54737294  0.66526004  0.26265215    -0.25200
H1417       H  0.51688670  0.67560981  0.34111430     0.19700
S1418       S  0.48129613  0.76865165  0.32726577    -0.30900
H1419       H  0.51376689  0.75889332  0.24974707     0.10000
C1420       C  0.52356071  0.70640163  0.17222507     0.03200
C1421       C  0.53351351  0.70600826  0.12794474    -0.13200
C1422       C  0.55828894  0.71770885  0.11723891    -0.08900
C1423       C  0.57326772  0.73035567  0.15206627     0.06700
C1424       C  0.56335734  0.73053575  0.19662092    -0.14000
S1425       S  0.49136931  0.69148445  0.18424823    -0.30900
H1426       H  0.52181677  0.69657003  0.10133704     0.10900
S1427       S  0.60427641  0.74768720  0.14162169    -0.28000
H1428       H  0.57483158  0.74009044  0.22339473     0.08200
H1429       H  0.45918686  0.75382735  0.34273403     0.26600
H1430       H  0.48733464  0.67977095  0.14127301     0.21400
H1431       H  0.59603763  0.75882823  0.09988772     0.26700
H1432       H  0.56693001  0.67835032  0.23663849     0.15600
C1433       C  0.49080306  0.74275928  0.78651790    -0.11700
C1434       C  0.49687924  0.72680152  0.74878774     0.14800
C1435       C  0.51977027  0.71022987  0.75013678     0.01700
C1436       C  0.53490715  0.70861897  0.79008953    -0.16100
C1437       C  0.52834077  0.72373989  0.82876353    -0.10900
C1438       C  0.50633929  0.74157465  0.82628064     0.08400
C1439       C  0.47948188  0.72816692  0.70803169     0.09500
S1440       S  0.53046932  0.69016118  0.70251297    -0.25200
H1441       H  0.55176568  0.69496774  0.79124056     0.19700
S1442       S  0.49560946  0.76149852  0.87372746    -0.30900
H1443       H  0.47349251  0.75584382  0.78526460     0.10000
C1444       C  0.46376593  0.70619706  0.69384455     0.03200
C1445       C  0.45181143  0.70661855  0.65048238    -0.13200
C1446       C  0.45517062  0.72872530  0.62165379    -0.08900
C1447       C  0.46832672  0.75175264  0.63824790     0.06700
C1448       C  0.48057634  0.75117446  0.68096983    -0.14000
S1449       S  0.45993060  0.67730197  0.73017920    -0.30900
H1450       H  0.44144014  0.68910030  0.63786042     0.10900
S1451       S  0.47066990  0.78212844  0.60557672    -0.28000
H1452       H  0.49199387  0.76836758  0.69239092     0.08200
H1453       H  0.52018817  0.77512333  0.87702563     0.26600
H1454       H  0.44490435  0.66183637  0.69933961     0.21400
H1455       H  0.44575733  0.77836319  0.58404118     0.26700
H1456       H  0.52084380  0.70733917  0.66825923     0.15600
C1457       C  0.66429538  0.67259941  0.78936834    -0.11700
C1458       C  0.68863486  0.66269013  0.80620229     0.14800
C1459       C  0.69565457  0.66771343  0.85201272     0.01700
C1460       C  0.67655262  0.67881358  0.88137729    -0.16100
C1461       C  0.65079430  0.68571350  0.86556466    -0.10900
C1462       C  0.64562418  0.68454948  0.81815472     0.08400
C1463       C  0.70359814  0.64382562  0.77674696     0.09500
S1464       S  0.72789094  0.65882680  0.87547523    -0.25200
H1465       H  0.68128934  0.68033046  0.91725517     0.19700
S1466       S  0.61522776  0.69695136  0.79224556    -0.30900
H1467       H  0.65915384  0.66969989  0.75384239     0.10000
C1468       C  0.70294487  0.61607709  0.78532045     0.03200
C1469       C  0.71140270  0.59824284  0.75157339    -0.13200
C1470       C  0.72047646  0.60731836  0.70886175    -0.08900
C1471       C  0.72387928  0.63529595  0.70264013     0.06700
C1472       C  0.71479108  0.65311965  0.73603598    -0.14000
S1473       S  0.68851066  0.60297271  0.83707602    -0.30900
H1474       H  0.70912132  0.57703520  0.75769805     0.10900
S1475       S  0.73911871  0.64978701  0.65298599    -0.28000
H1476       H  0.71575257  0.67447292  0.72971887     0.08200
H1477       H  0.61121940  0.71742579  0.82432563     0.26600
H1478       H  0.69765480  0.57652385  0.83189653     0.21400
H1479       H  0.75981325  0.63067700  0.65121061     0.26700
H1480       H  0.74148758  0.65785700  0.83375457     0.15600
C1481       C  0.64940927  0.52877534  0.07964877    -0.11700
C1482       C  0.65782759  0.54318455  0.04143990     0.14800
C1483       C  0.67987445  0.53391310  0.01605407     0.01700
C1484       C  0.69363204  0.51103251  0.03045265    -0.16100
C1485       C  0.68541576  0.49669280  0.06900922    -0.10900
C1486       C  0.66291389  0.50571492  0.09380220     0.08400
C1487       C  0.64451186  0.56886384  0.03104408     0.09500
S1488       S  0.69124116  0.55023307  0.96489216    -0.25200
H1489       H  0.71060527  0.50406432  0.01087239     0.19700
S1490       S  0.65106083  0.48969913  0.14494009    -0.30900
H1491       H  0.63263158  0.53603653  0.09937502     0.10000
C1492       C  0.61831904  0.56987345  0.01325191     0.03200
C1493       C  0.60667532  0.59478659  0.00357679    -0.13200
C1494       C  0.62090307  0.61871951  0.01055897    -0.08900
C1495       C  0.64741173  0.61744745  0.02772965     0.06700
C1496       C  0.65863406  0.59264205  0.03868867    -0.14000
S1497       S  0.60023219  0.53942817  0.00093887    -0.30900
H1498       H  0.58654137  0.59563863  0.98983575     0.10900
S1499       S  0.66884587  0.64630462  0.03273434    -0.28000
H1500       H  0.67893107  0.59175885  0.05179346     0.08200
H1501       H  0.67649120  0.48271435  0.16176578     0.26600
H1502       H  0.57846965  0.55156583  0.97842179     0.21400
H1503       H  0.66170108  0.65684219  0.98997804     0.26700
H1504       H  0.66612730  0.56040817  0.95168922     0.15600
loop_ 
_geom_bond_atom_site_label_1 
_geom_bond_atom_site_label_2 
_geom_bond_distance 
_geom_bond_site_symmetry_2 
_ccdc_geom_bond_type 
Fe1          O17   2.089       .  S
Fe1           O7   2.038   1_556  S
Fe1          O14   2.064       .  S
Fe1           O6   2.088       .  S
Fe1          O12   1.963       .  S
Fe2           O5   2.056       .  S
Fe2           O9   2.057       .  S
Fe2          O13   2.068       .  S
Fe2          O18   2.049       .  S
Fe2          O12   1.952       .  S
Fe3          O21   2.061   1_556  S
Fe3           O8   2.102       .  S
Fe3          O15   2.098   1_556  S
Fe3           O4   2.053       .  S
Fe3          O12   1.958       .  S
O4           C11   1.266       .  A
O5           C19   1.264       .  A
O6           C11   1.270       .  A
O7           C10   1.269       .  A
O8           C20   1.280       .  A
O9           C22   1.268       .  A
C10          O15   1.279       .  A
C10        C1422   1.478       .  S
C11        C1365   1.483       .  S
O13          C16   1.270       .  A
O14          C16   1.269       .  A
C16        C1437   1.483       .  S
O17          C22   1.272       .  A
O18          C20   1.272       .  A
C19          O21   1.265   1_556  A
C19        C1494   1.479   1_556  S
C20        C1461   1.489       .  S
C22        C1389   1.475       .  S
Fe23         O39   2.093       .  S
Fe23         O29   2.041       .  S
Fe23         O36   2.070       .  S
Fe23         O28   2.097       .  S
Fe23         O34   1.956       .  S
Fe24         O27   2.075       .  S
Fe24         O31   2.046       .  S
Fe24         O35   2.067       .  S
Fe24         O40   2.051       .  S
Fe24         O34   1.953       .  S
Fe25         O43   2.061       .  S
Fe25         O30   2.106       .  S
Fe25         O37   2.100       .  S
Fe25         O26   2.054       .  S
Fe25         O34   1.953       .  S
O26          C33   1.269       .  A
O27          C41   1.266       .  A
O28          C33   1.274       .  A
O29          C32   1.266       .  A
O30          C42   1.280       .  A
O31          C44   1.269       .  A
C32          O37   1.275       .  A
C32        C1326   1.475       .  S
C33        C1245   1.497       .  S
O35          C38   1.267       .  A
O36          C38   1.267       .  A
C38        C1341   1.472       .  S
O39          C44   1.278       .  A
O40          C42   1.273       .  A
C41          O43   1.265       .  A
C41        C1302   1.489       .  S
C42        C1470   1.500       .  S
C44        C1278   1.488       .  S
Fe45         O61   2.063       .  S
Fe45         O51   2.090       .  S
Fe45         O58   2.103       .  S
Fe45         O50   2.042       .  S
Fe45         O56   1.967       .  S
Fe46         O49   2.052       .  S
Fe46         O53   2.061       .  S
Fe46         O57   2.048       .  S
Fe46         O62   2.063       .  S
Fe46         O56   1.959       .  S
Fe47         O65   2.090       .  S
Fe47         O52   2.059       .  S
Fe47         O59   2.051       .  S
Fe47         O48   2.083       .  S
Fe47         O56   1.963       .  S
O48          C55   1.272       .  A
O49          C63   1.272       .  A
O50          C55   1.266       .  A
O51          C54   1.274       .  A
O52          C64   1.265       .  A
O53          C66   1.265       .  A
C54          O59   1.268       .  A
C54        C1134   1.485       .  S
C55        C1173   1.466       .  S
O57          C60   1.269       .  A
O58          C60   1.279       .  A
C60        C1149   1.489       .  S
O61          C66   1.264       .  A
O62          C64   1.265       .  A
C63          O65   1.275       .  A
C63        C1230   1.491       .  S
C64        C1269   1.483       .  S
C66        C1197   1.466       .  S
Fe67         O83   2.072       .  S
Fe67         O73   2.089       .  S
Fe67         O80   2.090       .  S
Fe67         O72   2.037       .  S
Fe67         O78   1.951       .  S
Fe68         O71   2.044       .  S
Fe68         O75   2.076       .  S
Fe68         O79   2.042       .  S
Fe68         O84   2.071       .  S
Fe68         O78   1.946       .  S
Fe69         O87   2.102       .  S
Fe69         O74   2.057       .  S
Fe69         O81   2.049       .  S
Fe69         O70   2.093       .  S
Fe69         O78   1.956       .  S
O70          C77   1.273   1_554  A
O71          C85   1.271       .  A
O72          C77   1.267   1_554  A
O73          C76   1.274       .  A
O74          C86   1.265       .  A
O75          C88   1.268       .  A
C76          O81   1.268       .  A
C76        C1086   1.478       .  S
C77        C1350   1.482       .  S
O79          C82   1.268       .  A
O80          C82   1.277       .  A
C82        C1485   1.474       .  S
O83          C88   1.268       .  A
O84          C86   1.267       .  A
C85          O87   1.277       .  A
C85        C1221   1.495       .  S
C86        C1101   1.479       .  S
C88        C1317   1.476       .  S
Fe89        O105   2.078       .  S
Fe89         O95   2.038   1_556  S
Fe89        O102   2.062       .  S
Fe89         O94   2.084       .  S
Fe89        O100   1.964       .  S
Fe90         O93   2.069       .  S
Fe90         O97   2.052       .  S
Fe90        O101   2.066       .  S
Fe90        O106   2.056       .  S
Fe90        O100   1.956       .  S
Fe91        O109   2.061   1_556  S
Fe91         O96   2.080       .  S
Fe91        O103   2.087   1_556  S
Fe91         O92   2.055       .  S
Fe91        O100   1.963       .  S
O92          C99   1.268       .  A
O93         C107   1.270       .  A
O94          C99   1.272       .  A
O95          C98   1.265       .  A
O96         C108   1.271       .  A
O97         C110   1.267       .  A
C98         O103   1.272       .  A
C98        C1206   1.473       .  S
C99        C1005   1.474       .  S
O101        C104   1.270       .  A
O102        C104   1.268       .  A
C104       C1182   1.481       .  S
O105        C110   1.273       .  A
O106        C108   1.269       .  A
C107        O109   1.268   1_556  A
C107       C1053   1.489   1_556  S
C108       C1029   1.472       .  S
C110       C1110   1.482       .  S
Fe111       O127   2.073       .  S
Fe111       O117   2.040       .  S
Fe111       O124   2.059       .  S
Fe111       O116   2.079       .  S
Fe111       O122   1.981       .  S
Fe112       O115   2.059       .  S
Fe112       O119   2.048       .  S
Fe112       O123   2.051       .  S
Fe112       O128   2.052       .  S
Fe112       O122   1.971       .  S
Fe113       O131   2.075       .  S
Fe113       O118   2.080       .  S
Fe113       O125   2.081       .  S
Fe113       O114   2.064       .  S
Fe113       O122   1.975       .  S
O114        C121   1.268       .  A
O115        C129   1.266       .  A
O116        C121   1.270       .  A
O117        C120   1.266       .  A
O118        C130   1.273       .  A
O119        C132   1.267       .  A
C120        O125   1.273       .  A
C120        C966   1.469       .  S
C121        C909   1.481       .  S
O123        C126   1.266       .  A
O124        C126   1.267       .  A
C126        C981   1.471       .  S
O127        C132   1.270       .  A
O128        C130   1.269       .  A
C129        O131   1.269       .  A
C129       C1158   1.494       .  S
C130       C1038   1.466       .  S
C132        C942   1.468       .  S
Fe133       O149   2.069       .  S
Fe133       O139   2.091       .  S
Fe133       O146   2.097       .  S
Fe133       O138   2.049       .  S
Fe133       O144   1.981       .  S
Fe134       O137   2.050       .  S
Fe134       O141   2.052       .  S
Fe134       O145   2.046       .  S
Fe134       O150   2.057       .  S
Fe134       O144   1.968       .  S
Fe135       O153   2.092       .  S
Fe135       O140   2.053       .  S
Fe135       O147   2.046       .  S
Fe135       O136   2.090       .  S
Fe135       O144   1.973       .  S
O136        C143   1.276       .  A
O137        C151   1.269       .  A
O138        C143   1.271       .  A
O139        C142   1.271       .  A
O140        C152   1.263       .  A
O141        C154   1.268       .  A
C142        O147   1.263       .  A
C142        C861   1.485       .  S
C143       C1446   1.472       .  S
O145        C148   1.266       .  A
O146        C148   1.274       .  A
C148       C1293   1.491       .  S
O149        C154   1.270       .  A
O150        C152   1.263       .  A
C151        O153   1.277       .  A
C151        C894   1.487       .  S
C152        C933   1.480       .  S
C154       C1413   1.478       .  S
Fe155       O171   2.063       .  S
Fe155       O161   2.088       .  S
Fe155       O168   2.099       .  S
Fe155       O160   2.041       .  S
Fe155       O166   1.964       .  S
Fe156       O159   2.048       .  S
Fe156       O163   2.060       .  S
Fe156       O167   2.051       .  S
Fe156       O172   2.071       .  S
Fe156       O166   1.949       .  S
Fe157       O175   2.097       .  S
Fe157       O162   2.061       .  S
Fe157       O169   2.048       .  S
Fe157       O158   2.080   1_554  S
Fe157       O166   1.954       .  S
O158        C165   1.272       .  A
O159        C173   1.271       .  A
O160        C165   1.267   1_554  A
O161        C164   1.273       .  A
O162        C174   1.264       .  A
O163        C176   1.267       .  A
C164        O169   1.267       .  A
C164        C837   1.482       .  S
C165        C990   1.462       .  S
O167        C170   1.271       .  A
O168        C170   1.278       .  A
C170       C1062   1.485       .  S
O171        C176   1.266       .  A
O172        C174   1.266       .  A
C173        O175   1.278       .  A
C173        C885   1.484       .  S
C174       C1398   1.477       .  S
C176        C957   1.474       .  S
Fe177       O193   2.080       .  S
Fe177       O183   2.045       .  S
Fe177       O190   2.070       .  S
Fe177       O182   2.093       .  S
Fe177       O188   1.977       .  S
Fe178       O181   2.062       .  S
Fe178       O185   2.049       .  S
Fe178       O189   2.060       .  S
Fe178       O194   2.047       .  S
Fe178       O188   1.969       .  S
Fe179       O197   2.056       .  S
Fe179       O184   2.081       .  S
Fe179       O191   2.077       .  S
Fe179       O180   2.050       .  S
Fe179       O188   1.975       .  S
O180        C187   1.266       .  A
O181        C195   1.266       .  A
O182        C187   1.273       .  A
O183        C186   1.267       .  A
O184        C196   1.273       .  A
O185        C198   1.266       .  A
C186        O191   1.271       .  A
C186        C741   1.471       .  S
C187        C918   1.485       .  S
O189        C192   1.267       .  A
O190        C192   1.270       .  A
C192        C774   1.476       .  S
O193        C198   1.272       .  A
O194        C196   1.269       .  A
C195        O197   1.264       .  A
C195        C813   1.483       .  S
C196        C798   1.466       .  S
C198        C726   1.483   1_455  S
Fe199       O215   2.075   1_545  S
Fe199       O205   2.050       .  S
Fe199       O212   2.060       .  S
Fe199       O204   2.078       .  S
Fe199       O210   1.981       .  S
Fe200       O203   2.055       .  S
Fe200       O207   2.041       .  S
Fe200       O211   2.058       .  S
Fe200       O216   2.052       .  S
Fe200       O210   1.970       .  S
Fe201       O219   2.065       .  S
Fe201       O206   2.075       .  S
Fe201       O213   2.075   1_554  S
Fe201       O202   2.052       .  S
Fe201       O210   1.975       .  S
O202        C209   1.266       .  A
O203        C217   1.265       .  A
O204        C209   1.268       .  A
O205        C208   1.268   1_554  A
O206        C218   1.273       .  A
O207        C220   1.265   1_545  A
C208        O213   1.274       .  A
C208        C678   1.478       .  S
C209       C1014   1.486       .  S
O211        C214   1.268       .  A
O212        C214   1.267       .  A
C214        C693   1.485       .  S
O215        C220   1.270       .  A
O216        C218   1.269       .  A
C217        O219   1.265       .  A
C217        C645   1.488       .  S
C218        C789   1.464       .  S
C220        C621   1.479       .  S
Fe221       O237   2.067       .  S
Fe221       O227   2.080       .  S
Fe221       O234   2.087       .  S
Fe221       O226   2.051   1_556  S
Fe221       O232   1.978       .  S
Fe222       O225   2.050       .  S
Fe222       O229   2.052       .  S
Fe222       O233   2.041       .  S
Fe222       O238   2.051       .  S
Fe222       O232   1.973       .  S
Fe223       O241   2.090       .  S
Fe223       O228   2.047   1_556  S
Fe223       O235   2.041       .  S
Fe223       O224   2.092   1_556  S
Fe223       O232   1.973       .  S
O224        C231   1.276       .  A
O225        C239   1.271       .  A
O226        C231   1.270       .  A
O227        C230   1.269       .  A
O228        C240   1.260   1_554  A
O229        C242   1.264       .  A
C230        O235   1.262       .  A
C230        C846   1.479       .  S
C231        C573   1.476       .  S
O233        C236   1.266       .  A
O234        C236   1.274       .  A
C236        C534   1.480   1_455  S
O237        C242   1.266       .  A
O238        C240   1.262       .  A
C239        O241   1.278       .  A
C239        C558   1.487       .  S
C240        C630   1.479   1_556  S
C242        C597   1.467       .  S
Fe243       O259   2.071       .  S
Fe243       O249   2.093       .  S
Fe243       O256   2.103       .  S
Fe243       O248   2.043       .  S
Fe243       O254   1.959       .  S
Fe244       O247   2.050       .  S
Fe244       O251   2.058       .  S
Fe244       O255   2.051       .  S
Fe244       O260   2.062       .  S
Fe244       O254   1.950       .  S
Fe245       O263   2.104       .  S
Fe245       O250   2.067       .  S
Fe245       O257   2.055       .  S
Fe245       O246   2.085       .  S
Fe245       O254   1.955       .  S
O246        C253   1.276       .  A
O247        C261   1.274       .  A
O248        C253   1.269       .  A
O249        C252   1.273       .  A
O250        C262   1.263       .  A
O251        C264   1.263       .  A
C252        O257   1.267       .  A
C252        C870   1.488       .  S
C253        C702   1.472       .  S
O255        C258   1.272       .  A
O256        C258   1.279       .  A
C258        C822   1.487       .  S
O259        C264   1.268       .  A
O260        C262   1.263       .  A
C261        O263   1.281       .  A
C261        C549   1.479       .  S
C262        C501   1.478       .  S
C264        C669   1.485       .  S
Fe265       O281   2.102   1_655  S
Fe265       O271   2.039       .  S
Fe265       O278   2.062       .  S
Fe265       O270   2.099       .  S
Fe265       O276   1.969       .  S
Fe266       O269   2.068       .  S
Fe266       O273   2.047       .  S
Fe266       O277   2.065       .  S
Fe266       O282   2.045       .  S
Fe266       O276   1.959       .  S
Fe267       O285   2.062       .  S
Fe267       O272   2.099       .  S
Fe267       O279   2.091       .  S
Fe267       O268   2.048       .  S
Fe267       O276   1.962       .  S
O268        C275   1.265       .  A
O269        C283   1.265       .  A
O270        C275   1.274       .  A
O271        C274   1.267       .  A
O272        C284   1.280       .  A
O273        C286   1.269   1_655  A
C274        O279   1.276       .  A
C274        C606   1.473       .  S
C275       C1254   1.487       .  S
O277        C280   1.268       .  A
O278        C280   1.266       .  A
C280        C582   1.481       .  S
O281        C286   1.278       .  A
O282        C284   1.272       .  A
C283        O285   1.264       .  A
C283        C477   1.485       .  S
C284        C453   1.482       .  S
C286        C510   1.481       .  S
Fe287       O303   2.083       .  S
Fe287       O293   2.066       .  S
Fe287       O300   2.068       .  S
Fe287       O292   2.084       .  S
Fe287       O298   1.985       .  S
Fe288       O291   2.056       .  S
Fe288       O295   2.064       .  S
Fe288       O299   2.049       .  S
Fe288       O304   2.052       .  S
Fe288       O298   1.972       .  S
Fe289       O307   2.060       .  S
Fe289       O294   2.084       .  S
Fe289       O301   2.074   1_554  S
Fe289       O290   2.059       .  S
Fe289       O298   1.975       .  S
O290        C297   1.268       .  A
O291        C305   1.263       .  A
O292        C297   1.271       .  A
O293        C296   1.269   1_554  A
O294        C306   1.274       .  A
O295        C308   1.271       .  A
C296        O301   1.271       .  A
C296        C405   1.473       .  S
C297       C1374   1.488       .  S
O299        C302   1.263       .  A
O300        C302   1.266       .  A
C302        C429   1.469       .  S
O303        C308   1.275       .  A
O304        C306   1.272       .  A
C305        O307   1.264       .  A
C305        C525   1.473       .  S
C306        C462   1.497       .  S
C308        C390   1.481   1_565  S
Fe309       O325   2.067       .  S
Fe309       O315   2.083       .  S
Fe309       O322   2.087   1_655  S
Fe309       O314   2.040   1_556  S
Fe309       O320   1.956       .  S
Fe310       O313   2.045       .  S
Fe310       O317   2.065       .  S
Fe310       O321   2.051       .  S
Fe310       O326   2.078       .  S
Fe310       O320   1.945       .  S
Fe311       O329   2.100       .  S
Fe311       O316   2.063   1_556  S
Fe311       O323   2.052       .  S
Fe311       O312   2.097   1_556  S
Fe311       O320   1.955       .  S
O312        C319   1.276       .  A
O313        C327   1.270       .  A
O314        C319   1.267       .  A
O315        C318   1.272       .  A
O316        C328   1.267   1_554  A
O317        C330   1.267       .  A
C318        O323   1.267       .  A
C318       C1077   1.474       .  S
C319        C765   1.469       .  S
O321        C324   1.270   1_655  A
O322        C324   1.275       .  A
C324        C654   1.477       .  S
O325        C330   1.267       .  A
O326        C328   1.269       .  A
C327        O329   1.276       .  A
C327        C366   1.496       .  S
C328        C381   1.488       .  S
C330        C750   1.466   1_655  S
Fe331       O347   2.071       .  S
Fe331       O337   2.084       .  S
Fe331       O344   2.087   1_545  S
Fe331       O336   2.047       .  S
Fe331       O342   1.985       .  S
Fe332       O335   2.053       .  S
Fe332       O339   2.055       .  S
Fe332       O343   2.052       .  S
Fe332       O348   2.047       .  S
Fe332       O342   1.971       .  S
Fe333       O351   2.086       .  S
Fe333       O338   2.066       .  S
Fe333       O345   2.054       .  S
Fe333       O334   2.077       .  S
Fe333       O342   1.981       .  S
O334        C341   1.272       .  A
O335        C349   1.271       .  A
O336        C341   1.267       .  A
O337        C340   1.272       .  A
O338        C350   1.265       .  A
O339        C352   1.265       .  A
C340        O345   1.267       .  A
C340       C1125   1.480       .  S
C341        C438   1.469       .  S
O343        C346   1.267   1_545  A
O344        C346   1.274       .  A
C346        C486   1.488       .  S
O347        C352   1.268       .  A
O348        C350   1.262       .  A
C349        O351   1.274       .  A
C349        C357   1.486       .  S
C350        C717   1.477       .  S
C352        C414   1.480   1_545  S
C353        C354   1.404       .  A
C353        C358   1.402       .  A
C353        H363   1.084       .  S
C354        C359   1.482       .  S
C354        C355   1.411       .  A
C355        C356   1.396       .  A
C355        S360   1.805       .  S
C356        C357   1.405       .  A
C356        H361   1.079       .  S
C357        C358   1.417       .  A
C358        S362   1.801       .  S
C359        C364   1.409       .  A
C359        C368   1.404       .  A
S360        H376   1.406       .  S
S362        H373   1.408       .  S
C364        C365   1.396       .  A
C364        S369   1.811       .  S
C365        C366   1.409       .  A
C365        H370   1.082       .  S
C366        C367   1.420       .  A
C367        C368   1.405       .  A
C367        S371   1.801       .  S
C368        H372   1.083       .  S
S369        H374   1.407       .  S
S371        H375   1.408       .  S
C377        C378   1.401   1_556  A
C377        C382   1.405       .  A
C377        H387   1.082       .  S
C378        C383   1.484       .  S
C378        C379   1.412       .  A
C379        C380   1.401       .  A
C379        S384   1.803       .  S
C380        C381   1.406   1_554  A
C380        H385   1.085       .  S
C381        C382   1.419       .  A
C382        S386   1.810       .  S
C383        C388   1.410       .  A
C383        C392   1.402       .  A
S384        H400   1.405       .  S
S386        H397   1.407       .  S
C388        C389   1.405       .  A
C388        S393   1.806       .  S
C389        C390   1.404       .  A
C389        H394   1.083       .  S
C390        C391   1.416   1_545  A
C391        C392   1.402   1_565  A
C391        S395   1.804       .  S
C392        H396   1.084       .  S
S393        H398   1.407       .  S
S395        H399   1.407       .  S
C401        C402   1.401       .  A
C401        C406   1.398       .  A
C401        H411   1.083       .  S
C402        C407   1.481       .  S
C402        C403   1.414       .  A
C403        C404   1.400       .  A
C403        S408   1.803       .  S
C404        C405   1.401       .  A
C404        H409   1.085       .  S
C405        C406   1.413       .  A
C406        S410   1.801       .  S
C407        C412   1.409       .  A
C407        C416   1.401       .  A
S408        H424   1.406       .  S
S410        H421   1.407       .  S
C412        C413   1.406       .  A
C412        S417   1.805       .  S
C413        C414   1.406       .  A
C413        H418   1.084       .  S
C414        C415   1.414   1_565  A
C415        C416   1.397   1_545  A
C415        S419   1.801       .  S
C416        H420   1.084       .  S
S417        H422   1.407       .  S
S419        H423   1.407       .  S
C425        C426   1.403   1_565  A
C425        C430   1.397       .  A
C425        H435   1.084       .  S
C426        C431   1.477       .  S
C426        C427   1.411       .  A
C427        C428   1.400       .  A
C427        S432   1.803       .  S
C428        C429   1.403   1_545  A
C428        H433   1.084       .  S
C429        C430   1.411       .  A
C430        S434   1.805       .  S
C431        C436   1.407       .  A
C431        C440   1.404       .  A
S432        H448   1.406       .  S
S434        H445   1.407       .  S
C436        C437   1.400       .  A
C436        S441   1.806       .  S
C437        C438   1.404       .  A
C437        H442   1.083       .  S
C438        C439   1.411       .  A
C439        C440   1.400       .  A
C439        S443   1.804       .  S
C440        H444   1.084       .  S
S441        H446   1.407       .  S
S443        H447   1.406       .  S
C449        C450   1.401       .  A
C449        C454   1.397       .  A
C449        H459   1.083       .  S
C450        C455   1.482       .  S
C450        C451   1.413       .  A
C451        C452   1.402       .  A
C451        S456   1.803       .  S
C452        C453   1.405       .  A
C452        H457   1.083       .  S
C453        C454   1.417       .  A
C454        S458   1.805       .  S
C455        C460   1.409       .  A
C455        C464   1.403       .  A
S456        H472   1.406       .  S
S458        H469   1.408       .  S
C460        C461   1.396       .  A
C460        S465   1.811       .  S
C461        C462   1.410       .  A
C461        H466   1.082       .  S
C462        C463   1.421       .  A
C463        C464   1.405       .  A
C463        S467   1.800       .  S
C464        H468   1.084       .  S
S465        H470   1.406       .  S
S467        H471   1.408       .  S
C473        C474   1.400       .  A
C473        C478   1.396       .  A
C473        H483   1.085       .  S
C474        C479   1.483       .  S
C474        C475   1.414       .  A
C475        C476   1.405       .  A
C475        S480   1.805       .  S
C476        C477   1.408       .  A
C476        H481   1.083       .  S
C477        C478   1.416       .  A
C478        S482   1.802       .  S
C479        C484   1.410       .  A
C479        C488   1.399       .  A
S480        H496   1.405       .  S
S482        H493   1.407       .  S
C484        C485   1.404       .  A
C484        S489   1.807       .  S
C485        C486   1.406       .  A
C485        H490   1.083       .  S
C486        C487   1.421       .  A
C487        C488   1.401       .  A
C487        S491   1.803       .  S
C488        H492   1.084       .  S
S489        H494   1.406       .  S
S491        H495   1.408       .  S
C497        C498   1.405       .  A
C497        C502   1.405       .  A
C497        H507   1.083       .  S
C498        C503   1.482       .  S
C498        C499   1.411       .  A
C499        C500   1.397       .  A
C499        S504   1.805       .  S
C500        C501   1.404       .  A
C500        H505   1.085       .  S
C501        C502   1.414       .  A
C502        S506   1.804       .  S
C503        C508   1.409       .  A
C503        C512   1.402       .  A
S504        H520   1.405       .  S
S506        H517   1.407       .  S
C508        C509   1.403       .  A
C508        S513   1.807       .  S
C509        C510   1.406       .  A
C509        H514   1.082       .  S
C510        C511   1.414       .  A
C511        C512   1.402       .  A
C511        S515   1.803       .  S
C512        H516   1.085       .  S
S513        H518   1.407       .  S
S515        H519   1.407       .  S
C521        C522   1.403   1_556  A
C521        C526   1.400   1_556  A
C521        H531   1.083       .  S
C522        C527   1.478       .  S
C522        C523   1.412       .  A
C523        C524   1.398       .  A
C523        S528   1.806       .  S
C524        C525   1.404       .  A
C524        H529   1.088       .  S
C525        C526   1.411       .  A
C526        S530   1.803   1_554  S
C527        C532   1.409       .  A
C527        C536   1.399       .  A
S528        H544   1.405       .  S
S530        H541   1.406       .  S
C532        C533   1.403   1_554  A
C532        S537   1.806   1_554  S
C533        C534   1.406       .  A
C533        H538   1.080       .  S
C534        C535   1.418   1_556  A
C535        C536   1.397       .  A
C535        S539   1.805   1_655  S
C536        H540   1.087       .  S
S537        H542   1.407       .  S
S539        H543   1.408       .  S
C545        C546   1.405       .  A
C545        C550   1.396       .  A
C545        H555   1.082       .  S
C546        C551   1.491       .  S
C546        C547   1.417       .  A
C547        C548   1.402       .  A
C547        S552   1.803       .  S
C548        C549   1.403       .  A
C548        H553   1.084       .  S
C549        C550   1.412       .  A
C550        S554   1.802       .  S
C551        C556   1.414       .  A
C551        C560   1.403       .  A
S552        H568   1.407       .  S
S554        H565   1.407       .  S
C556        C557   1.407       .  A
C556        S561   1.807       .  S
C557        C558   1.407       .  A
C557        H562   1.083       .  S
C558        C559   1.418       .  A
C559        C560   1.394       .  A
C559        S563   1.806       .  S
C560        H564   1.084       .  S
S561        H566   1.407       .  S
S563        H567   1.408       .  S
C569        C570   1.398       .  A
C569        C574   1.396       .  A
C569        H579   1.084       .  S
C570        C575   1.480       .  S
C570        C571   1.416       .  A
C571        C572   1.404       .  A
C571        S576   1.804       .  S
C572        C573   1.403       .  A
C572        H577   1.083       .  S
C573        C574   1.414       .  A
C574        S578   1.801       .  S
C575        C580   1.409       .  A
C575        C584   1.402       .  A
S576        H592   1.406       .  S
S578        H589   1.407       .  S
C580        C581   1.400   1_455  A
C580        S585   1.807   1_455  S
C581        C582   1.406       .  A
C581        H586   1.083       .  S
C582        C583   1.416   1_655  A
C583        C584   1.401       .  A
C583        S587   1.799       .  S
C584        H588   1.083       .  S
S585        H590   1.407       .  S
S587        H591   1.407       .  S
C593        C594   1.399   1_655  A
C593        C598   1.394   1_655  A
C593        H603   1.083       .  S
C594        C599   1.475   1_455  S
C594        C595   1.414       .  A
C595        C596   1.402       .  A
C595        S600   1.803       .  S
C596        C597   1.401       .  A
C596        H601   1.084       .  S
C597        C598   1.412       .  A
C598        S602   1.804   1_455  S
C599        C604   1.409       .  A
C599        C608   1.398   1_655  A
S600        H616   1.405       .  S
S602        H613   1.405       .  S
C604        C605   1.405       .  A
C604        S609   1.805       .  S
C605        C606   1.404       .  A
C605        H610   1.082       .  S
C606        C607   1.416       .  A
C607        C608   1.394   1_655  A
C607        S611   1.805   1_655  S
C608        H612   1.084       .  S
S609        H614   1.407       .  S
S611        H615   1.407   1_455  S
C617        C618   1.404       .  A
C617        C622   1.400       .  A
C617        H627   1.084   1_554  S
C618        C623   1.479       .  S
C618        C619   1.408       .  A
C619        C620   1.397       .  A
C619        S624   1.809       .  S
C620        C621   1.407       .  A
C620        H625   1.084       .  S
C621        C622   1.415       .  A
C622        S626   1.804   1_554  S
C623        C628   1.410   1_554  A
C623        C632   1.402       .  A
S624        H640   1.407       .  S
S626        H637   1.408       .  S
C628        C629   1.400       .  A
C628        S633   1.808       .  S
C629        C630   1.406   1_556  A
C629        H634   1.083       .  S
C630        C631   1.415       .  A
C631        C632   1.397       .  A
C631        S635   1.804       .  S
C632        H636   1.084       .  S
S633        H638   1.407       .  S
S635        H639   1.408       .  S
C641        C642   1.402   1_556  A
C641        C646   1.401       .  A
C641        H651   1.083       .  S
C642        C647   1.479   1_554  S
C642        C643   1.410       .  A
C643        C644   1.397       .  A
C643        S648   1.805       .  S
C644        C645   1.408       .  A
C644        H649   1.084       .  S
C645        C646   1.418   1_554  A
C646        S650   1.802       .  S
C647        C652   1.411   1_556  A
C647        C656   1.400       .  A
S648        H664   1.406       .  S
S650        H661   1.407       .  S
C652        C653   1.402       .  A
C652        S657   1.807       .  S
C653        C654   1.404   1_554  A
C653        H658   1.083       .  S
C654        C655   1.415       .  A
C655        C656   1.398       .  A
C655        S659   1.803       .  S
C656        H660   1.084       .  S
S657        H662   1.407       .  S
S659        H663   1.406       .  S
C665        C666   1.398       .  A
C665        C670   1.394       .  A
C665        H675   1.084       .  S
C666        C671   1.476   1_565  S
C666        C667   1.410       .  A
C667        C668   1.401       .  A
C667        S672   1.804   1_565  S
C668        C669   1.407       .  A
C668        H673   1.083       .  S
C669        C670   1.422       .  A
C670        S674   1.806       .  S
C671        C676   1.411       .  A
C671        C680   1.397       .  A
S672        H688   1.406       .  S
S674        H685   1.398       .  S
C676        C677   1.402       .  A
C676        S681   1.806       .  S
C677        C678   1.403       .  A
C677        H682   1.083       .  S
C678        C679   1.417       .  A
C679        C680   1.394       .  A
C679        S683   1.801       .  S
C680        H684   1.083   1_545  S
S681        H686   1.407       .  S
S683        H687   1.407       .  S
C689        C690   1.398       .  A
C689        C694   1.398       .  A
C689        H699   1.084       .  S
C690        C695   1.472       .  S
C690        C691   1.410   1_565  A
C691        C692   1.398       .  A
C691        S696   1.806       .  S
C692        C693   1.408       .  A
C692        H697   1.084       .  S
C693        C694   1.419   1_545  A
C694        S698   1.800       .  S
C695        C700   1.409       .  A
C695        C704   1.397       .  A
S696        H712   1.404       .  S
S698        H709   1.408       .  S
C700        C701   1.403       .  A
C700        S705   1.805       .  S
C701        C702   1.403       .  A
C701        H706   1.083       .  S
C702        C703   1.416       .  A
C703        C704   1.394       .  A
C703        S707   1.802       .  S
C704        H708   1.084       .  S
S705        H710   1.407       .  S
S707        H711   1.403       .  S
C713        C714   1.399       .  A
C713        C718   1.395       .  A
C713        H723   1.085       .  S
C714        C719   1.478       .  S
C714        C715   1.413       .  A
C715        C716   1.402       .  A
C715        S720   1.804       .  S
C716        C717   1.405       .  A
C716        H721   1.084       .  S
C717        C718   1.416       .  A
C718        S722   1.805       .  S
C719        C724   1.408       .  A
C719        C728   1.400       .  A
S720        H736   1.405       .  S
S722        H733   1.407       .  S
C724        C725   1.402       .  A
C724        S729   1.807       .  S
C725        C726   1.406       .  A
C725        H730   1.083       .  S
C726        C727   1.419       .  A
C727        C728   1.399       .  A
C727        S731   1.805   1_655  S
C728        H732   1.084       .  S
S729        H734   1.406       .  S
S731        H735   1.406       .  S
C737        C738   1.404       .  A
C737        C742   1.395       .  A
C737        H747   1.084       .  S
C738        C743   1.483       .  S
C738        C739   1.415       .  A
C739        C740   1.400       .  A
C739        S744   1.803       .  S
C740        C741   1.402       .  A
C740        H745   1.084       .  S
C741        C742   1.413       .  A
C742        S746   1.806       .  S
C743        C748   1.414       .  A
C743        C752   1.401       .  A
S744        H760   1.406       .  S
S746        H757   1.406       .  S
C748        C749   1.404   1_455  A
C748        S753   1.807   1_455  S
C749        C750   1.400   1_655  A
C749        H754   1.083       .  S
C750        C751   1.411       .  A
C751        C752   1.396       .  A
C751        S755   1.802       .  S
C752        H756   1.084       .  S
S753        H758   1.407       .  S
S755        H759   1.406       .  S
C761        C762   1.405       .  A
C761        C766   1.400       .  A
C761        H771   1.084       .  S
C762        C767   1.479   1_655  S
C762        C763   1.414       .  A
C763        C764   1.400       .  A
C763        S768   1.809       .  S
C764        C765   1.403       .  A
C764        H769   1.084       .  S
C765        C766   1.409       .  A
C766        S770   1.803       .  S
C767        C772   1.408   1_455  A
C767        C776   1.402       .  A
S768        H784   1.400   1_655  S
S770        H781   1.404       .  S
C772        C773   1.404   1_655  A
C772        S777   1.806       .  S
C773        C774   1.405       .  A
C773        H778   1.083   1_455  S
C774        C775   1.414       .  A
C775        C776   1.399       .  A
C775        S779   1.805       .  S
C776        H780   1.084       .  S
S777        H782   1.407       .  S
S779        H783   1.407       .  S
C785        C786   1.405       .  A
C785        C790   1.394       .  A
C785        H795   1.084       .  S
C786        C791   1.485       .  S
C786        C787   1.417       .  A
C787        C788   1.402       .  A
C787        S792   1.803       .  S
C788        C789   1.401       .  A
C788        H793   1.084       .  S
C789        C790   1.409       .  A
C790        S794   1.806       .  S
C791        C796   1.414       .  A
C791        C800   1.404       .  A
S792        H808   1.406       .  S
S794        H805   1.406       .  S
C796        C797   1.403       .  A
C796        S801   1.807       .  S
C797        C798   1.401       .  A
C797        H802   1.083       .  S
C798        C799   1.410       .  A
C799        C800   1.396       .  A
C799        S803   1.804       .  S
C800        H804   1.083       .  S
S801        H806   1.407       .  S
S803        H807   1.405       .  S
C809        C810   1.403       .  A
C809        C814   1.401       .  A
C809        H819   1.084       .  S
C810        C815   1.482       .  S
C810        C811   1.412       .  A
C811        C812   1.397       .  A
C811        S816   1.805       .  S
C812        C813   1.406       .  A
C812        H817   1.084       .  S
C813        C814   1.416       .  A
C814        S818   1.804       .  S
C815        C820   1.411       .  A
C815        C824   1.400       .  A
S816        H832   1.405       .  S
S818        H829   1.408       .  S
C820        C821   1.405       .  A
C820        S825   1.808       .  S
C821        C822   1.408   1_545  A
C821        H826   1.081       .  S
C822        C823   1.418   1_565  A
C823        C824   1.398       .  A
C823        S827   1.803   1_545  S
C824        H828   1.084       .  S
S825        H830   1.407       .  S
S827        H831   1.408       .  S
C833        C834   1.402       .  A
C833        C838   1.398       .  A
C833        H843   1.087       .  S
C834        C839   1.481       .  S
C834        C835   1.412       .  A
C835        C836   1.404       .  A
C835        S840   1.805   1_554  S
C836        C837   1.406       .  A
C836        H841   1.077       .  S
C837        C838   1.413       .  A
C838        S842   1.804       .  S
C839        C844   1.407       .  A
C839        C848   1.402   1_554  A
S840        H856   1.402       .  S
S842        H853   1.408       .  S
C844        C845   1.405       .  A
C844        S849   1.805       .  S
C845        C846   1.405   1_554  A
C845        H850   1.080       .  S
C846        C847   1.413       .  A
C847        C848   1.403       .  A
C847        S851   1.809       .  S
C848        H852   1.085       .  S
S849        H854   1.406       .  S
S851        H855   1.407       .  S
C857        C858   1.404       .  A
C857        C862   1.402       .  A
C857        H867   1.084       .  S
C858        C863   1.487       .  S
C858        C859   1.412       .  A
C859        C860   1.405       .  A
C859        S864   1.803       .  S
C860        C861   1.405       .  A
C860        H865   1.081       .  S
C861        C862   1.414       .  A
C862        S866   1.804       .  S
C863        C868   1.409       .  A
C863        C872   1.403       .  A
S864        H880   1.404       .  S
S866        H877   1.408       .  S
C868        C869   1.409       .  A
C868        S873   1.805       .  S
C869        C870   1.408       .  A
C869        H874   1.079       .  S
C870        C871   1.415       .  A
C871        C872   1.401       .  A
C871        S875   1.804       .  S
C872        H876   1.084       .  S
S873        H878   1.407       .  S
S875        H879   1.407       .  S
C881        C882   1.404       .  A
C881        C886   1.401       .  A
C881        H891   1.082       .  S
C882        C887   1.490       .  S
C882        C883   1.414       .  A
C883        C884   1.401       .  A
C883        S888   1.803       .  S
C884        C885   1.406       .  A
C884        H889   1.083       .  S
C885        C886   1.414       .  A
C886        S890   1.809       .  S
C887        C892   1.412       .  A
C887        C896   1.403       .  A
S888        H904   1.406       .  S
S890        H901   1.407       .  S
C892        C893   1.406       .  A
C892        S897   1.806       .  S
C893        C894   1.406       .  A
C893        H898   1.082       .  S
C894        C895   1.418       .  A
C895        C896   1.398       .  A
C895        S899   1.806       .  S
C896        H900   1.083       .  S
S897        H902   1.407       .  S
S899        H903   1.408       .  S
C905        C906   1.404       .  A
C905        C910   1.403       .  A
C905        H915   1.084       .  S
C906        C911   1.488       .  S
C906        C907   1.413       .  A
C907        C908   1.404       .  A
C907        S912   1.803       .  S
C908        C909   1.405       .  A
C908        H913   1.084       .  S
C909        C910   1.412       .  A
C910        S914   1.804       .  S
C911        C916   1.411       .  A
C911        C920   1.403       .  A
S912        H928   1.406       .  S
S914        H925   1.407       .  S
C916        C917   1.404       .  A
C916        S921   1.807       .  S
C917        C918   1.405       .  A
C917        H922   1.084       .  S
C918        C919   1.417       .  A
C919        C920   1.405       .  A
C919        S923   1.800       .  S
C920        H924   1.083       .  S
S921        H926   1.407       .  S
S923        H927   1.406       .  S
C929        C930   1.401       .  A
C929        C934   1.399       .  A
C929        H939   1.083       .  S
C930        C935   1.473       .  S
C930        C931   1.410       .  A
C931        C932   1.396       .  A
C931        S936   1.805       .  S
C932        C933   1.407       .  A
C932        H937   1.085       .  S
C933        C934   1.416       .  A
C934        S938   1.803       .  S
C935        C940   1.409       .  A
C935        C944   1.400       .  A
S936        H952   1.405       .  S
S938        H949   1.407       .  S
C940        C941   1.401       .  A
C940        S945   1.806       .  S
C941        C942   1.402       .  A
C941        H946   1.083       .  S
C942        C943   1.413       .  A
C943        C944   1.397       .  A
C943        S947   1.804       .  S
C944        H948   1.084       .  S
S945        H950   1.406       .  S
S947        H951   1.407       .  S
C953        C954   1.405       .  A
C953        C958   1.407       .  A
C953        H963   1.082       .  S
C954        C959   1.473       .  S
C954        C955   1.407       .  A
C955        C956   1.391       .  A
C955        S960   1.805       .  S
C956        C957   1.404       .  A
C956        H961   1.085       .  S
C957        C958   1.411       .  A
C958        S962   1.806       .  S
C959        C964   1.408       .  A
C959        C968   1.401       .  A
S960        H976   1.404       .  S
S962        H973   1.407       .  S
C964        C965   1.398       .  A
C964        S969   1.808       .  S
C965        C966   1.403       .  A
C965        H970   1.083       .  S
C966        C967   1.413       .  A
C967        C968   1.401       .  A
C967        S971   1.803       .  S
C968        H972   1.084       .  S
S969        H974   1.406       .  S
S971        H975   1.406       .  S
C977        C978   1.399       .  A
C977        C982   1.397       .  A
C977        H987   1.083       .  S
C978        C983   1.469       .  S
C978        C979   1.411       .  A
C979        C980   1.394       .  A
C979        S984   1.806       .  S
C980        C981   1.404       .  A
C980        H985   1.084       .  S
C981        C982   1.416       .  A
C982        S986   1.801       .  S
C983        C988   1.411       .  A
C983        C992   1.397       .  A
S984       H1000   1.405       .  S
S986        H997   1.407       .  S
C988        C989   1.401       .  A
C988        S993   1.807       .  S
C989        C990   1.400       .  A
C989        H994   1.083       .  S
C990        C991   1.410       .  A
C991        C992   1.393       .  A
C991        S995   1.798       .  S
C992        H996   1.083       .  S
S993        H998   1.407       .  S
S995        H999   1.407       .  S
C1001      C1002   1.404   1_556  A
C1001      C1006   1.399       .  A
C1001      H1011   1.085       .  S
C1002      C1007   1.480       .  S
C1002      C1003   1.412       .  A
C1003      C1004   1.401       .  A
C1003      S1008   1.805       .  S
C1004      C1005   1.405   1_554  A
C1004      H1009   1.085       .  S
C1005      C1006   1.411       .  A
C1006      S1010   1.804       .  S
C1007      C1012   1.408       .  A
C1007      C1016   1.402       .  A
S1008      H1024   1.404       .  S
S1010      H1021   1.407       .  S
C1012      C1013   1.400       .  A
C1012      S1017   1.808       .  S
C1013      C1014   1.406       .  A
C1013      H1018   1.084       .  S
C1014      C1015   1.417       .  A
C1015      C1016   1.404       .  A
C1015      S1019   1.798       .  S
C1016      H1020   1.084       .  S
S1017      H1022   1.407       .  S
S1019      H1023   1.407       .  S
C1025      C1026   1.403       .  A
C1025      C1030   1.397       .  A
C1025      H1035   1.083       .  S
C1026      C1031   1.486       .  S
C1026      C1027   1.416       .  A
C1027      C1028   1.401       .  A
C1027      S1032   1.804       .  S
C1028      C1029   1.402       .  A
C1028      H1033   1.084       .  S
C1029      C1030   1.412       .  A
C1030      S1034   1.801       .  S
C1031      C1036   1.415       .  A
C1031      C1040   1.402       .  A
S1032      H1048   1.407       .  S
S1034      H1045   1.406       .  S
C1036      C1037   1.408       .  A
C1036      S1041   1.805       .  S
C1037      C1038   1.402       .  A
C1037      H1042   1.083       .  S
C1038      C1039   1.409       .  A
C1039      C1040   1.391       .  A
C1039      S1043   1.801       .  S
C1040      H1044   1.084       .  S
S1041      H1046   1.407       .  S
S1043      H1047   1.405       .  S
C1049      C1050   1.403       .  A
C1049      C1054   1.400       .  A
C1049      H1059   1.085       .  S
C1050      C1055   1.484       .  S
C1050      C1051   1.412   1_554  A
C1051      C1052   1.398       .  A
C1051      S1056   1.806       .  S
C1052      C1053   1.409   1_556  A
C1052      H1057   1.083       .  S
C1053      C1054   1.417       .  A
C1054      S1058   1.803       .  S
C1055      C1060   1.412       .  A
C1055      C1064   1.401       .  A
S1056      H1072   1.406       .  S
S1058      H1069   1.408       .  S
C1060      C1061   1.405       .  A
C1060      S1065   1.808   1_554  S
C1061      C1062   1.406       .  A
C1061      H1066   1.082       .  S
C1062      C1063   1.418       .  A
C1063      C1064   1.398       .  A
C1063      S1067   1.803       .  S
C1064      H1068   1.084       .  S
S1065      H1070   1.407       .  S
S1067      H1071   1.408       .  S
C1073      C1074   1.405   1_556  A
C1073      C1078   1.400       .  A
C1073      H1083   1.083       .  S
C1074      C1079   1.484       .  S
C1074      C1075   1.412       .  A
C1075      C1076   1.400       .  A
C1075      S1080   1.803       .  S
C1076      C1077   1.404   1_554  A
C1076      H1081   1.084       .  S
C1077      C1078   1.411       .  A
C1078      S1082   1.804       .  S
C1079      C1084   1.409       .  A
C1079      C1088   1.403       .  A
S1080      H1096   1.406       .  S
S1082      H1093   1.407       .  S
C1084      C1085   1.404       .  A
C1084      S1089   1.806   1_554  S
C1085      C1086   1.406       .  A
C1085      H1090   1.082       .  S
C1086      C1087   1.413       .  A
C1087      C1088   1.399       .  A
C1087      S1091   1.804       .  S
C1088      H1092   1.084       .  S
S1089      H1094   1.407       .  S
S1091      H1095   1.407       .  S
C1097      C1098   1.399       .  A
C1097      C1102   1.395       .  A
C1097      H1107   1.085       .  S
C1098      C1103   1.476   1_554  S
C1098      C1099   1.413   1_554  A
C1099      C1100   1.402       .  A
C1099      S1104   1.806       .  S
C1100      C1101   1.406   1_556  A
C1100      H1105   1.083       .  S
C1101      C1102   1.415       .  A
C1102      S1106   1.804       .  S
C1103      C1108   1.407       .  A
C1103      C1112   1.401       .  A
S1104      H1120   1.404       .  S
S1106      H1117   1.407       .  S
C1108      C1109   1.400       .  A
C1108      S1113   1.807       .  S
C1109      C1110   1.406       .  A
C1109      H1114   1.083       .  S
C1110      C1111   1.419       .  A
C1111      C1112   1.400       .  A
C1111      S1115   1.804       .  S
C1112      H1116   1.084   1_556  S
S1113      H1118   1.406       .  S
S1115      H1119   1.406   1_556  S
C1121      C1122   1.403       .  A
C1121      C1126   1.402       .  A
C1121      H1131   1.083       .  S
C1122      C1127   1.483       .  S
C1122      C1123   1.412       .  A
C1123      C1124   1.404       .  A
C1123      S1128   1.803       .  S
C1124      C1125   1.406       .  A
C1124      H1129   1.084       .  S
C1125      C1126   1.411       .  A
C1126      S1130   1.808       .  S
C1127      C1132   1.408       .  A
C1127      C1136   1.401       .  A
S1128      H1144   1.404       .  S
S1130      H1141   1.407       .  S
C1132      C1133   1.407       .  A
C1132      S1137   1.804       .  S
C1133      C1134   1.407       .  A
C1133      H1138   1.081       .  S
C1134      C1135   1.415       .  A
C1135      C1136   1.399       .  A
C1135      S1139   1.805       .  S
C1136      H1140   1.085       .  S
S1137      H1142   1.407       .  S
S1139      H1143   1.407       .  S
C1145      C1146   1.403       .  A
C1145      C1150   1.401       .  A
C1145      H1155   1.084       .  S
C1146      C1151   1.491       .  S
C1146      C1147   1.415       .  A
C1147      C1148   1.402       .  A
C1147      S1152   1.804       .  S
C1148      C1149   1.405       .  A
C1148      H1153   1.084       .  S
C1149      C1150   1.419       .  A
C1150      S1154   1.805       .  S
C1151      C1156   1.411       .  A
C1151      C1160   1.405       .  A
S1152      H1168   1.407       .  S
S1154      H1165   1.408       .  S
C1156      C1157   1.403       .  A
C1156      S1161   1.809       .  S
C1157      C1158   1.410       .  A
C1157      H1162   1.081       .  S
C1158      C1159   1.416       .  A
C1159      C1160   1.403       .  A
C1159      S1163   1.802       .  S
C1160      H1164   1.084       .  S
S1161      H1166   1.407       .  S
S1163      H1167   1.408       .  S
C1169      C1170   1.399       .  A
C1169      C1174   1.397       .  A
C1169      H1179   1.083       .  S
C1170      C1175   1.476       .  S
C1170      C1171   1.415       .  A
C1171      C1172   1.399       .  A
C1171      S1176   1.804       .  S
C1172      C1173   1.399       .  A
C1172      H1177   1.085       .  S
C1173      C1174   1.412       .  A
C1174      S1178   1.801       .  S
C1175      C1180   1.408       .  A
C1175      C1184   1.400       .  A
S1176      H1192   1.406       .  S
S1178      H1189   1.407       .  S
C1180      C1181   1.398       .  A
C1180      S1185   1.808       .  S
C1181      C1182   1.405       .  A
C1181      H1186   1.083       .  S
C1182      C1183   1.418       .  A
C1183      C1184   1.401       .  A
C1183      S1187   1.799       .  S
C1184      H1188   1.083       .  S
S1185      H1190   1.407       .  S
S1187      H1191   1.407       .  S
C1193      C1194   1.401       .  A
C1193      C1198   1.397       .  A
C1193      H1203   1.085       .  S
C1194      C1199   1.480       .  S
C1194      C1195   1.416       .  A
C1195      C1196   1.400       .  A
C1195      S1200   1.804       .  S
C1196      C1197   1.400       .  A
C1196      H1201   1.083       .  S
C1197      C1198   1.410       .  A
C1198      S1202   1.802       .  S
C1199      C1204   1.411       .  A
C1199      C1208   1.401       .  A
S1200      H1216   1.406       .  S
S1202      H1213   1.406       .  S
C1204      C1205   1.406       .  A
C1204      S1209   1.806       .  S
C1205      C1206   1.405       .  A
C1205      H1210   1.083       .  S
C1206      C1207   1.413       .  A
C1207      C1208   1.394       .  A
C1207      S1211   1.806       .  S
C1208      H1212   1.085       .  S
S1209      H1214   1.407       .  S
S1211      H1215   1.407       .  S
C1217      C1218   1.403       .  A
C1217      C1222   1.405       .  A
C1217      H1227   1.084       .  S
C1218      C1223   1.481       .  S
C1218      C1219   1.410       .  A
C1219      C1220   1.392       .  A
C1219      S1224   1.805       .  S
C1220      C1221   1.409       .  A
C1220      H1225   1.082       .  S
C1221      C1222   1.421       .  A
C1222      S1226   1.801       .  S
C1223      C1228   1.408       .  A
C1223      C1232   1.401       .  A
S1224      H1240   1.406       .  S
S1226      H1237   1.407       .  S
C1228      C1229   1.402       .  A
C1228      S1233   1.808       .  S
C1229      C1230   1.409       .  A
C1229      H1234   1.083       .  S
C1230      C1231   1.420       .  A
C1231      C1232   1.400       .  A
C1231      S1235   1.800       .  S
C1232      H1236   1.084       .  S
S1233      H1238   1.407       .  S
S1235      H1239   1.408       .  S
C1241      C1242   1.403       .  A
C1241      C1246   1.407       .  A
C1241      H1251   1.084       .  S
C1242      C1247   1.488       .  S
C1242      C1243   1.411       .  A
C1243      C1244   1.399       .  A
C1243      S1248   1.804       .  S
C1244      C1245   1.408       .  A
C1244      H1249   1.084       .  S
C1245      C1246   1.420       .  A
C1246      S1250   1.799       .  S
C1247      C1252   1.410       .  A
C1247      C1256   1.402       .  A
S1248      H1264   1.405       .  S
S1250      H1261   1.407       .  S
C1252      C1253   1.411       .  A
C1252      S1257   1.804       .  S
C1253      C1254   1.408       .  A
C1253      H1258   1.083       .  S
C1254      C1255   1.416       .  A
C1255      C1256   1.400       .  A
C1255      S1259   1.805       .  S
C1256      H1260   1.084       .  S
S1257      H1262   1.407       .  S
S1259      H1263   1.407       .  S
C1265      C1266   1.399       .  A
C1265      C1270   1.396       .  A
C1265      H1275   1.085       .  S
C1266      C1271   1.476       .  S
C1266      C1267   1.412       .  A
C1267      C1268   1.401       .  A
C1267      S1272   1.806       .  S
C1268      C1269   1.406       .  A
C1268      H1273   1.084       .  S
C1269      C1270   1.418       .  A
C1270      S1274   1.803       .  S
C1271      C1276   1.406       .  A
C1271      C1280   1.399       .  A
S1272      H1288   1.404       .  S
S1274      H1285   1.408       .  S
C1276      C1277   1.400       .  A
C1276      S1281   1.806       .  S
C1277      C1278   1.408       .  A
C1277      H1282   1.082       .  S
C1278      C1279   1.421       .  A
C1279      C1280   1.399       .  A
C1279      S1283   1.804       .  S
C1280      H1284   1.085       .  S
S1281      H1286   1.407       .  S
S1283      H1287   1.406       .  S
C1289      C1290   1.404       .  A
C1289      C1294   1.403       .  A
C1289      H1299   1.083       .  S
C1290      C1295   1.485       .  S
C1290      C1291   1.410       .  A
C1291      C1292   1.399       .  A
C1291      S1296   1.804       .  S
C1292      C1293   1.408       .  A
C1292      H1297   1.084       .  S
C1293      C1294   1.418       .  A
C1294      S1298   1.802       .  S
C1295      C1300   1.410       .  A
C1295      C1304   1.400       .  A
S1296      H1312   1.406       .  S
S1298      H1309   1.408       .  S
C1300      C1301   1.406       .  A
C1300      S1305   1.806       .  S
C1301      C1302   1.408       .  A
C1301      H1306   1.082       .  S
C1302      C1303   1.419       .  A
C1303      C1304   1.400       .  A
C1303      S1307   1.800       .  S
C1304      H1308   1.084       .  S
S1305      H1310   1.407       .  S
S1307      H1311   1.408       .  S
C1313      C1314   1.400       .  A
C1313      C1318   1.399       .  A
C1313      H1323   1.084       .  S
C1314      C1319   1.482       .  S
C1314      C1315   1.415       .  A
C1315      C1316   1.403       .  A
C1315      S1320   1.803       .  S
C1316      C1317   1.401       .  A
C1316      H1321   1.084       .  S
C1317      C1318   1.414       .  A
C1318      S1322   1.800       .  S
C1319      C1324   1.411       .  A
C1319      C1328   1.399       .  A
S1320      H1336   1.406       .  S
S1322      H1333   1.405       .  S
C1324      C1325   1.409       .  A
C1324      S1329   1.804       .  S
C1325      C1326   1.405       .  A
C1325      H1330   1.082       .  S
C1326      C1327   1.413       .  A
C1327      C1328   1.395       .  A
C1327      S1331   1.805       .  S
C1328      H1332   1.085       .  S
S1329      H1334   1.407       .  S
S1331      H1335   1.407       .  S
C1337      C1338   1.398       .  A
C1337      C1342   1.395       .  A
C1337      H1347   1.084       .  S
C1338      C1343   1.478       .  S
C1338      C1339   1.416       .  A
C1339      C1340   1.402       .  A
C1339      S1344   1.803       .  S
C1340      C1341   1.400       .  A
C1340      H1345   1.084       .  S
C1341      C1342   1.414       .  A
C1342      S1346   1.800       .  S
C1343      C1348   1.408       .  A
C1343      C1352   1.404       .  A
S1344      H1360   1.406       .  S
S1346      H1357   1.404       .  S
C1348      C1349   1.396       .  A
C1348      S1353   1.809       .  S
C1349      C1350   1.406       .  A
C1349      H1354   1.083       .  S
C1350      C1351   1.415       .  A
C1351      C1352   1.404       .  A
C1351      S1355   1.799       .  S
C1352      H1356   1.083       .  S
S1353      H1358   1.407       .  S
S1355      H1359   1.407       .  S
C1361      C1362   1.403   1_556  A
C1361      C1366   1.398       .  A
C1361      H1371   1.085       .  S
C1362      C1367   1.485       .  S
C1362      C1363   1.414       .  A
C1363      C1364   1.407       .  A
C1363      S1368   1.805       .  S
C1364      C1365   1.408   1_554  A
C1364      H1369   1.084       .  S
C1365      C1366   1.412       .  A
C1366      S1370   1.803       .  S
C1367      C1372   1.408       .  A
C1367      C1376   1.403       .  A
S1368      H1384   1.403       .  S
S1370      H1381   1.407       .  S
C1372      C1373   1.401       .  A
C1372      S1377   1.808       .  S
C1373      C1374   1.407       .  A
C1373      H1378   1.083       .  S
C1374      C1375   1.420       .  A
C1375      C1376   1.407       .  A
C1375      S1379   1.803       .  S
C1376      H1380   1.084       .  S
S1377      H1382   1.407       .  S
S1379      H1383   1.400       .  S
C1385      C1386   1.405   1_554  A
C1385      C1390   1.400       .  A
C1385      H1395   1.084       .  S
C1386      C1391   1.487   1_556  S
C1386      C1387   1.416       .  A
C1387      C1388   1.401       .  A
C1387      S1392   1.805       .  S
C1388      C1389   1.403       .  A
C1388      H1393   1.085       .  S
C1389      C1390   1.412   1_556  A
C1390      S1394   1.805       .  S
C1391      C1396   1.413   1_554  A
C1391      C1400   1.402       .  A
S1392      H1408   1.405       .  S
S1394      H1405   1.406       .  S
C1396      C1397   1.406       .  A
C1396      S1401   1.806       .  S
C1397      C1398   1.403   1_556  A
C1397      H1402   1.083       .  S
C1398      C1399   1.413       .  A
C1399      C1400   1.401       .  A
C1399      S1403   1.809       .  S
C1400      H1404   1.083       .  S
S1401      H1406   1.407       .  S
S1403      H1407   1.407       .  S
C1409      C1410   1.404       .  A
C1409      C1414   1.403       .  A
C1409      H1419   1.083       .  S
C1410      C1415   1.475       .  S
C1410      C1411   1.408       .  A
C1411      C1412   1.392       .  A
C1411      S1416   1.805       .  S
C1412      C1413   1.406       .  A
C1412      H1417   1.085       .  S
C1413      C1414   1.414       .  A
C1414      S1418   1.802       .  S
C1415      C1420   1.407       .  A
C1415      C1424   1.403       .  A
S1416      H1432   1.405       .  S
S1418      H1429   1.407       .  S
C1420      C1421   1.396       .  A
C1420      S1425   1.809       .  S
C1421      C1422   1.406       .  A
C1421      H1426   1.083       .  S
C1422      C1423   1.415       .  A
C1423      C1424   1.403       .  A
C1423      S1427   1.802       .  S
C1424      H1428   1.083       .  S
S1425      H1430   1.407       .  S
S1427      H1431   1.406       .  S
C1433      C1434   1.402       .  A
C1433      C1438   1.401       .  A
C1433      H1443   1.084       .  S
C1434      C1439   1.478       .  S
C1434      C1435   1.412       .  A
C1435      C1436   1.396       .  A
C1435      S1440   1.806       .  S
C1436      C1437   1.406       .  A
C1436      H1441   1.084       .  S
C1437      C1438   1.416       .  A
C1438      S1442   1.799       .  S
C1439      C1444   1.412       .  A
C1439      C1448   1.399       .  A
S1440      H1456   1.405       .  S
S1442      H1453   1.407       .  S
C1444      C1445   1.405       .  A
C1444      S1449   1.806       .  S
C1445      C1446   1.402       .  A
C1445      H1450   1.083       .  S
C1446      C1447   1.412       .  A
C1447      C1448   1.395       .  A
C1447      S1451   1.799       .  S
C1448      H1452   1.084       .  S
S1449      H1454   1.407       .  S
S1451      H1455   1.406       .  S
C1457      C1458   1.400       .  A
C1457      C1462   1.397       .  A
C1457      H1467   1.084       .  S
C1458      C1463   1.485       .  S
C1458      C1459   1.413       .  A
C1459      C1460   1.404       .  A
C1459      S1464   1.804       .  S
C1460      C1461   1.408       .  A
C1460      H1465   1.083       .  S
C1461      C1462   1.418       .  A
C1462      S1466   1.804       .  S
C1463      C1468   1.410       .  A
C1463      C1472   1.402       .  A
S1464      H1480   1.406       .  S
S1466      H1477   1.408       .  S
C1468      C1469   1.401       .  A
C1468      S1473   1.809       .  S
C1469      C1470   1.412       .  A
C1469      H1474   1.081       .  S
C1470      C1471   1.420       .  A
C1471      C1472   1.404       .  A
C1471      S1475   1.801       .  S
C1472      H1476   1.084       .  S
S1473      H1478   1.407       .  S
S1475      H1479   1.408       .  S
C1481      C1482   1.400       .  A
C1481      C1486   1.397       .  A
C1481      H1491   1.084       .  S
C1482      C1487   1.476       .  S
C1482      C1483   1.412       .  A
C1483      C1484   1.398       .  A
C1483      S1488   1.804   1_554  S
C1484      C1485   1.403       .  A
C1484      H1489   1.085       .  S
C1485      C1486   1.417       .  A
C1486      S1490   1.805       .  S
C1487      C1492   1.407       .  A
C1487      C1496   1.400       .  A
S1488      H1504   1.406       .  S
S1490      H1501   1.405       .  S
C1492      C1493   1.402       .  A
C1492      S1497   1.806       .  S
C1493      C1494   1.406       .  A
C1493      H1498   1.083   1_554  S
C1494      C1495   1.416       .  A
C1495      C1496   1.397       .  A
C1495      S1499   1.802       .  S
C1496      H1500   1.084       .  S
S1497      H1502   1.407   1_554  S
S1499      H1503   1.407   1_554  S
