geometry optimzed in LAMMPS
_audit_creation_date              2020-12-01 
_audit_creation_method            'lammps2cif' 
_symmetry_space_group_name_H-M    'P1' 
_symmetry_Int_Tables_number       1 
_symmetry_cell_setting            triclinic 
loop_ 
_symmetry_equiv_pos_as_xyz 
  x,y,z 
_cell_length_a                    42.27628032 
_cell_length_b                    42.27837648163165 
_cell_length_c                    37.38309462282294 
_cell_angle_alpha                 90.0003584391565 
_cell_angle_beta                  89.99939393808026 
_cell_angle_gamma                 89.99949662342517 
loop_ 
_atom_site_label 
_atom_site_type_symbol 
_atom_site_fract_x 
_atom_site_fract_y 
_atom_site_fract_z 
_atom_site_charge 
O1          O  0.04137837  0.40022702  0.49766686    -0.82200
O2          O  0.08368816  0.02805923  0.58493528    -0.66900
O3          O  0.06506981  0.44585226  0.54577185    -1.13500
C4          C  0.47917584  0.44580890  0.61658547     1.04700
O5          O  0.06186443  0.02118339  0.63940826    -0.80100
O6          O  0.06277067  0.45927776  0.63981178    -0.67700
Ni7        Ni  0.06831088  0.43824679  0.49533012     1.34900
C8          C  0.06146533  0.43217894  0.62582154     0.83400
O9          O  0.11576138  0.48662073  0.54136740    -0.80600
O10         O  0.09844230  0.47298490  0.48779002    -0.90900
C11         C  0.08111646  0.03476064  0.61849543     0.83000
O12         O  0.03191609  0.46447821  0.49121936    -0.69100
O13         O  0.99846900  0.45685863  0.63935114    -0.88400
C14         C  0.02856951  0.99190740  0.50472230     0.83900
C15         C  0.12131132  0.48034652  0.50870434     1.05400
H16         H  0.02007732  0.50335588  0.57525415     0.37200
O17         O  0.03362084  0.48694988  0.58466519    -1.11000
O18         O  0.03990849  0.42381291  0.60392839    -0.67700
Ni19       Ni  0.02283515  0.44750789  0.56431609     1.26300
O20         O  0.05130890  0.00578631  0.52216873    -0.67900
O21         O  0.48209799  0.45043049  0.58361734    -0.80200
C22         C  0.01957700  0.39128151  0.51918741     0.83200
O23         O  0.01053181  0.40796720  0.54522796    -0.67400
Ni24       Ni  0.03036422  0.48924589  0.63585302     1.27400
Ni25       Ni  0.07430074  0.48742624  0.56328174     1.26100
H26         H  0.07837514  0.43056570  0.55764284     0.37800
O27         O  0.23776753  0.09691419  0.75622848    -0.82200
O28         O  0.11004159  0.05453056  0.66881189    -0.66900
O29         O  0.19219774  0.07317717  0.70809165    -1.13500
C30         C  0.19234959  0.15899228  0.63721504     1.04700
O31         O  0.11701273  0.07627971  0.61431671    -0.80100
O32         O  0.17892764  0.07539630  0.61403177    -0.67700
Ni33       Ni  0.19974966  0.06997124  0.75854201     1.34900
C34         C  0.20601360  0.07673149  0.62805374     0.83400
O35         O  0.15142039  0.02249432  0.71247699    -0.80600
O36         O  0.16501762  0.03982335  0.76606532    -0.90900
C37         C  0.10339591  0.05705845  0.63523368     0.83000
O38         O  0.17348763  0.10635097  0.76259668    -0.69100
O39         O  0.18133236  0.13969141  0.61443590    -0.88400
C40         C  0.14605761  0.10967846  0.74908092     0.83900
C41         C  0.15766465  0.01695285  0.74514814     1.05400
H42         H  0.13472817  0.11813570  0.67846826     0.37200
O43         O  0.15114909  0.10458605  0.66909936    -1.11000
O44         O  0.21433242  0.09829485  0.64996023    -0.67700
Ni45       Ni  0.19055825  0.11539340  0.68950603     1.26300
O46         O  0.13221364  0.08694795  0.73158678    -0.67900
O47         O  0.18764058  0.15610583  0.67016813    -0.80200
C48         C  0.24673351  0.11869821  0.73469728     0.83200
O49         O  0.23006781  0.12772887  0.70863810    -0.67400
Ni50       Ni  0.14893923  0.10779369  0.61790125     1.27400
Ni51       Ni  0.15064454  0.06393196  0.69052615     1.26100
H52         H  0.20749870  0.05986506  0.69625337     0.37800
O53         O  0.21429029  0.27118697  0.63939282    -0.82200
O54         O  0.26561407  0.15796477  0.54521139    -0.66900
O55         O  0.24252904  0.23695028  0.58464728    -1.13500
C56         C  0.15483262  0.23034296  0.50869550     1.04700
O57         O  0.23478139  0.15023696  0.49763709    -0.80100
O58         O  0.24423301  0.21449179  0.49120261    -0.67700
Ni59       Ni  0.24578759  0.23924687  0.63583480     1.34900
C60         C  0.24757659  0.24191954  0.50471201     0.83400
O61         O  0.29405225  0.20042477  0.58359859    -0.80600
O62         O  0.27768116  0.20685833  0.63933253    -0.90900
C63         C  0.25657585  0.14128491  0.51916333     0.83000
O64         O  0.21337977  0.20928031  0.63979727    -0.69100
O65         O  0.17770201  0.22298784  0.48777739    -0.88400
C66         C  0.21468341  0.18218059  0.62580860     0.83900
C67         C  0.29697511  0.19580694  0.61656739     1.05400
H68         H  0.19777576  0.18056578  0.55762168     0.37200
O69         O  0.21108057  0.19585392  0.54575286    -1.11000
O70         O  0.22483310  0.25579399  0.52215590    -0.67700
Ni71       Ni  0.20184685  0.23742633  0.56326807     1.26300
O72         O  0.23623764  0.17381338  0.60391153    -0.67900
O73         O  0.16038443  0.23661795  0.54135799    -0.80200
C74         C  0.19503413  0.28476209  0.61848359     0.83200
O75         O  0.19245699  0.27805820  0.58492480    -0.67400
Ni76       Ni  0.20784182  0.18825414  0.49530912     1.27400
Ni77       Ni  0.25331414  0.19750681  0.56429858     1.26100
H78         H  0.25607212  0.25335619  0.57523523     0.37800
O79         O  0.15913437  0.32627882  0.61430939    -0.82200
O80         O  0.04608901  0.37773244  0.70864738    -0.66900
O81         O  0.12500575  0.35458829  0.66909912    -1.13500
C82         C  0.11849300  0.26695235  0.74514134     1.04700
O83         O  0.03839078  0.34691703  0.75623676    -0.80100
O84         O  0.10267422  0.35635077  0.76260342    -0.67700
Ni85       Ni  0.12720700  0.35779172  0.61789986     1.34900
C86         C  0.13010458  0.35968049  0.74908792     0.83400
O87         O  0.08851528  0.40610594  0.67017336    -0.80600
O88         O  0.09481207  0.38968818  0.61444058    -0.90900
C89         C  0.02942303  0.36870160  0.73470644     0.83000
O90         O  0.09722019  0.32539212  0.61404089    -0.69100
O91         O  0.11114145  0.28982115  0.76606242    -0.88400
C92         C  0.07013577  0.32672770  0.62806709     0.83900
C93         C  0.08380036  0.40899080  0.63722171     1.05400
H94         H  0.06866077  0.30986616  0.69626039     0.37200
O95         O  0.08396133  0.32317934  0.70809667    -1.11000
O96         O  0.14394801  0.33695352  0.73158549    -0.67700
Ni97       Ni  0.12551435  0.31393570  0.69052587     1.26300
O98         O  0.06181873  0.34829422  0.64997091    -0.67900
O99         O  0.12474122  0.27249737  0.71247231    -0.80200
C100        C  0.17275625  0.30706038  0.63522522     0.83200
O101        O  0.16611613  0.30453544  0.66880537    -0.67400
Ni102      Ni  0.07641013  0.31997221  0.75854612     1.27400
Ni103      Ni  0.08559798  0.36539501  0.68951154     1.26100
H104        H  0.14142727  0.36813865  0.67846475     0.37800
O105        O  0.31185421  0.47902036  0.63959371    -0.82200
O106        O  0.26053846  0.09204357  0.54524312    -0.66900
O107        O  0.28359955  0.01314140  0.58479736    -1.13500
C108        C  0.37124473  0.01951522  0.50875190     1.04700
O109        O  0.29132327  0.09968556  0.49761797    -0.80100
O110        O  0.28186711  0.03538696  0.49125209    -0.67700
Ni111      Ni  0.28039656  0.01098690  0.63600083     1.34900
C112        C  0.27853705  0.50795105  0.50475294     0.83400
O113        O  0.23212319  0.04967959  0.58372631    -0.80600
O114        O  0.24854523  0.04343003  0.63945854    -0.90900
C115        C  0.26956570  0.10868592  0.51917068     0.83000
O116        O  0.31284404  0.04092737  0.63985649    -0.69100
O117        O  0.34839251  0.02690052  0.48782113    -0.88400
C118        C  0.31151720  0.06801701  0.62584831     0.83900
C119        C  0.22923727  0.05442132  0.61667231     1.05400
H120        H  0.32838141  0.06941307  0.55760156     0.37200
O121        O  0.31504797  0.05412438  0.54577371    -1.11000
O122        O  0.30123918  0.49412581  0.52231134    -0.67700
Ni123      Ni  0.32424947  0.01257805  0.56336401     1.26300
O124        O  0.28998297  0.07632986  0.60389842    -0.67900
O125        O  0.36568926  0.01329331  0.54142401    -0.80200
C126        C  0.33105252  0.46536979  0.61868022     0.83200
O127        O  0.33359398  0.47198865  0.58510032    -0.67400
Ni128      Ni  0.31825297  0.06164832  0.49532195     1.27400
Ni129      Ni  0.27283693  0.05254239  0.56437904     1.26100
H130        H  0.27003027  0.99673317  0.57543705     0.37800
O131        O  0.36693624  0.42387241  0.61451177    -0.82200
O132        O  0.48014823  0.37264389  0.70867419    -0.66900
O133        O  0.40116391  0.39566705  0.66924940    -1.13500
C134        C  0.40766469  0.48337283  0.74520163     1.04700
O135        O  0.48785167  0.40347270  0.75625440    -0.80100
O136        O  0.42357997  0.39400119  0.76273583    -0.67700
Ni137      Ni  0.39889692  0.39240961  0.61805722     1.34900
C138        C  0.39614085  0.39065136  0.74925173     0.83400
O139        O  0.43772266  0.34417979  0.67028544    -0.80600
O140        O  0.43131372  0.36054224  0.61454861    -0.90900
C141        C  0.49682282  0.38169336  0.73471639     0.83000
O142        O  0.42884730  0.42483791  0.61408078    -0.69100
O143        O  0.41506830  0.46052515  0.76612748    -0.88400
C144        C  0.45595489  0.42352919  0.62805255     0.83900
C145        C  0.44236227  0.34125511  0.63732006     1.05400
H146        H  0.45749554  0.44046395  0.69627634     0.37200
O147        O  0.44222069  0.42714606  0.70814980    -1.11000
O148        O  0.38227431  0.41336449  0.73175376    -0.67700
Ni149      Ni  0.40064512  0.43634288  0.69063735     1.26300
O150        O  0.46430829  0.40200782  0.64999489    -0.67900
O151        O  0.40140666  0.47780586  0.71253915    -0.80200
C152        C  0.35333231  0.44310145  0.63542560     0.83200
O153        O  0.36001314  0.44568074  0.66898615    -0.67400
Ni154      Ni  0.44981615  0.43039503  0.75859043     1.27400
Ni155      Ni  0.44060584  0.38491503  0.68959455     1.26100
H156        H  0.38476848  0.38211098  0.67866198     0.37800
O157        O  0.98482731  0.34968675  0.49764407    -0.82200
O158        O  0.44255362  0.22199093  0.58511213    -0.66900
O159        O  0.46110109  0.30412646  0.54579595    -1.13500
C160        C  0.04691209  0.30441544  0.61669063     1.04700
O161        O  0.46429583  0.22901544  0.63960591    -0.80100
O162        O  0.46330457  0.29092310  0.63987851    -0.67700
Ni163      Ni  0.45789670  0.31165271  0.49534513     1.34900
C164        C  0.46463233  0.31801265  0.62587017     0.83400
O165        O  0.41045601  0.26330023  0.54144247    -0.80600
O166        O  0.42775561  0.27690803  0.48784124    -0.90900
C167        C  0.44509816  0.21536763  0.61868997     0.83000
O168        O  0.49428100  0.28538848  0.49127199    -0.69100
O169        O  0.02760452  0.29342502  0.63947832    -0.88400
C170        C  0.49760825  0.25795084  0.50476846     0.83900
C171        C  0.40490156  0.26952499  0.50877049     1.05400
H172        H  0.50611592  0.24673037  0.57545333     0.37200
O173        O  0.49254757  0.26313925  0.58481547    -1.11000
O174        O  0.48616805  0.32632510  0.60392199    -0.67700
Ni175      Ni  0.50331229  0.30253951  0.56440033     1.26300
O176        O  0.47490574  0.24412759  0.52232781    -0.67900
O177        O  0.04402575  0.29967089  0.58374533    -0.80200
C178        C  0.00658573  0.35868425  0.51919614     0.83200
O179        O  0.01561311  0.34204041  0.54526705    -0.67400
Ni180      Ni  0.49575235  0.26098259  0.63601902     1.27400
Ni181      Ni  0.45189738  0.26258031  0.56338213     1.26100
H182        H  0.44776841  0.31941534  0.55762519     0.37800
O183        O  0.28830371  0.15346288  0.75624862    -0.82200
O184        O  0.41613672  0.19567745  0.66898924    -0.66900
O185        O  0.33393034  0.17714249  0.70814516    -1.13500
C186        C  0.33378727  0.09125845  0.63730153     1.04700
O187        O  0.40921943  0.17387053  0.61451310    -0.80100
O188        O  0.34730794  0.17484103  0.61407151    -0.67700
Ni189      Ni  0.32633500  0.18038852  0.75858665     1.34900
C190        C  0.32019850  0.17353093  0.62803943     0.83400
O191        O  0.37474274  0.22780240  0.71253967    -0.80600
O192        O  0.36107935  0.21052188  0.76612792    -0.90900
C193        C  0.42282037  0.19309824  0.63543016     0.83000
O194        O  0.35257407  0.14399686  0.76273146    -0.69100
O195        O  0.34483838  0.11054658  0.61453300    -0.88400
C196        C  0.38001370  0.14064960  0.74924771     0.83900
C197        C  0.36848616  0.23336910  0.74520283     1.05400
H198        H  0.39138209  0.13210812  0.67865570     0.37200
O199        O  0.37498751  0.14566546  0.66924255    -1.11000
O200        O  0.31184496  0.15201155  0.64998433    -0.67700
Ni201      Ni  0.33554526  0.13491340  0.68958295     1.26300
O202        O  0.39387773  0.16336304  0.73174924    -0.67900
O203        O  0.33842695  0.09417968  0.67026735    -0.80200
C204        C  0.27933175  0.13168860  0.73470531     0.83200
O205        O  0.29600346  0.12264353  0.70865887    -0.67400
Ni206      Ni  0.37725714  0.14241075  0.61805003     1.27400
Ni207      Ni  0.37550517  0.18634027  0.69063496     1.26100
H208        H  0.31865593  0.19046162  0.69627253     0.37800
O209        O  0.48787648  0.34627792  0.25628504    -0.82200
O210        O  0.36003959  0.30407668  0.16901549    -0.66900
O211        O  0.44224577  0.32260374  0.20818043    -1.13500
C212        C  0.44239064  0.40849913  0.13735563     1.04700
O213        O  0.36695682  0.32589518  0.11454546    -0.80100
O214        O  0.42886474  0.32491668  0.11410866    -0.67700
Ni215      Ni  0.44983899  0.31935699  0.25862157     1.34900
C216        C  0.45597493  0.32622222  0.12807276     0.83400
O217        O  0.40142711  0.27194945  0.21256788    -0.80600
O218        O  0.41509063  0.28922558  0.26615942    -0.90900
C219        C  0.35335567  0.30666296  0.13545686     0.83000
O220        O  0.42360199  0.35575286  0.26276557    -0.69100
O221        O  0.43134466  0.38921102  0.11458418    -0.88400
C222        C  0.39616252  0.35910093  0.24928094     0.83900
C223        C  0.40767693  0.26638155  0.24523182     1.05400
H224        H  0.38479678  0.36764445  0.17869745     0.37200
O225        O  0.40119088  0.35408742  0.16928279    -1.11000
O226        O  0.46433243  0.34773679  0.15002289    -0.67700
Ni227      Ni  0.44063333  0.36483442  0.18962530     1.26300
O228        O  0.38229847  0.33638607  0.23178430    -0.67900
O229        O  0.43775357  0.40557166  0.17032082    -0.80200
C230        C  0.49684888  0.36805373  0.23474328     0.83200
O231        O  0.48017528  0.37710108  0.20870063    -0.67400
Ni232      Ni  0.39892226  0.35735045  0.11809210     1.27400
Ni233      Ni  0.40067044  0.31341090  0.19066722     1.26100
H234        H  0.45752033  0.30928492  0.19630689     0.37800
O235        O  0.29134802  0.15008333  0.99766066    -0.82200
O236        O  0.33361765  0.27778007  0.08513109    -0.66900
O237        O  0.31507031  0.19564434  0.04581323    -1.13500
C238        C  0.22924883  0.19535884  0.11669896     1.04700
O239        O  0.31187227  0.27075322  0.13962361    -0.80100
O240        O  0.31284292  0.20884462  0.13991147    -0.67700
Ni241      Ni  0.31827862  0.18811755  0.99536139     1.34900
C242        C  0.31151583  0.18175541  0.12590125     0.83400
O243        O  0.36571533  0.23647388  0.04145466    -0.80600
O244        O  0.34841824  0.22286368  0.98785290    -0.90900
C245        C  0.33107406  0.28439945  0.11871063     0.83000
O246        O  0.28189438  0.21438018  0.99128436    -0.69100
O247        O  0.24854607  0.20635829  0.13949204    -0.88400
C248        C  0.27856455  0.24181769  0.00478052     0.83900
C249        C  0.37127017  0.23025599  0.00878035     1.05400
H250        H  0.27005461  0.25304024  0.07546570     0.37200
O251        O  0.28362163  0.23663201  0.08483060    -1.11000
O252        O  0.28999003  0.17344691  0.10393962    -0.67700
Ni253      Ni  0.27285681  0.19723269  0.06441385     1.26300
O254        O  0.30126446  0.25564238  0.02234303    -0.67900
O255        O  0.23214158  0.20010330  0.08375426    -0.80200
C256        C  0.26958746  0.14108661  0.01921057     0.83200
O257        O  0.26055684  0.15773136  0.04527990    -0.67400
Ni258      Ni  0.28040602  0.23879481  0.13603387     1.27400
Ni259      Ni  0.32427355  0.23719096  0.06339796     1.26100
H260        H  0.32840012  0.18035523  0.05764630     0.37800
O261        O  0.46428693  0.02074775  0.13963718    -0.82200
O262        O  0.01562304  0.40773970  0.04528444    -0.66900
O263        O  0.49254646  0.48663246  0.08484530    -1.13500
C264        C  0.40491074  0.48025770  0.00877465     1.04700
O265        O  0.98484085  0.40009571  0.99765772    -0.80100
O266        O  0.49429101  0.46439124  0.99129810    -0.67700
Ni267      Ni  0.49575527  0.48878903  0.13604873     1.34900
C268        C  0.49761638  0.99182688  0.00480147     0.83400
O269        O  0.04402991  0.45010652  0.08377044    -0.80600
O270        O  0.02761584  0.45635155  0.13950605    -0.90900
C271        C  0.00659863  0.39109851  0.01921009     0.83000
O272        O  0.46331911  0.45883741  0.13991559    -0.69100
O273        O  0.42776777  0.47287191  0.98785109    -0.88400
C274        C  0.46465092  0.43174926  0.12590294     0.83900
C275        C  0.04691804  0.44535657  0.11671449     1.05400
H276        H  0.44777715  0.43035615  0.05764370     0.37200
O277        O  0.46110723  0.44564759  0.04581548    -1.11000
O278        O  0.47491167  0.00564938  0.02235864    -0.67700
Ni279      Ni  0.45189749  0.48719146  0.06340489     1.26300
O280        O  0.48618022  0.42344448  0.10394308    -0.67900
O281        O  0.41045932  0.48647360  0.04145115    -0.80200
C282        C  0.44508829  0.03439709  0.11872283     0.83200
O283        O  0.44254612  0.02777822  0.08514286    -0.67400
Ni284      Ni  0.45790810  0.43812697  0.99536115     1.27400
Ni285      Ni  0.50331795  0.44723673  0.06442412     1.26100
H286        H  0.50611380  0.50304289  0.07548571     0.37800
O287        O  0.40921681  0.07590398  0.11455601    -0.82200
O288        O  0.29597814  0.12710552  0.20869365    -0.66900
O289        O  0.37497082  0.10409324  0.16928926    -1.13500
C290        C  0.36846647  0.01638132  0.24522565     1.04700
O291        O  0.28826933  0.09627841  0.25627405    -0.80100
O292        O  0.35253970  0.10575158  0.26276707    -0.67700
Ni293      Ni  0.37725180  0.10736118  0.11809921     1.34900
C294        C  0.37998039  0.10909991  0.24928600     0.83400
O295        O  0.33840771  0.15557879  0.17032407    -0.80600
O296        O  0.34483044  0.13922264  0.11458728    -0.90900
C297        C  0.27930116  0.11805671  0.23473364     0.83000
O298        O  0.34731089  0.07492799  0.11410686    -0.69100
O299        O  0.36105226  0.03922478  0.26615384    -0.88400
C300        C  0.32020019  0.07622858  0.12807092     0.83900
C301        C  0.33377759  0.15850813  0.13735785     1.05400
H302        H  0.31863305  0.05929103  0.19629765     0.37200
O303        O  0.33390638  0.07260802  0.20817461    -1.11000
O304        O  0.39384772  0.08638447  0.23179255    -0.67700
Ni305      Ni  0.37548396  0.06341400  0.19066818     1.26300
O306        O  0.31183535  0.09774616  0.15001396    -0.67900
O307        O  0.37472018  0.02195040  0.21256295    -0.80200
C308        C  0.42280895  0.05666525  0.13546740     0.83200
O309        O  0.41611824  0.05407743  0.16902427    -0.67400
Ni310      Ni  0.32630492  0.06935640  0.25861408     1.27400
Ni311      Ni  0.33552403  0.11484012  0.18962450     1.26100
H312        H  0.39136360  0.11764815  0.17870968     0.37800
O313        O  0.03841653  0.40283162  0.25625377    -0.82200
O314        O  0.16612043  0.44522225  0.16879003    -0.66900
O315        O  0.08397409  0.42657207  0.20809876    -1.13500
C316        C  0.08381124  0.34076245  0.13722536     1.04700
O317        O  0.15913677  0.42348047  0.11429396    -0.80100
O318        O  0.09722178  0.42437053  0.11405011    -0.67700
Ni319      Ni  0.07643467  0.42977626  0.25855035     1.34900
C320        C  0.07013965  0.42303583  0.12808195     0.83400
O321        O  0.12474591  0.47725573  0.21245914    -0.80600
O322        O  0.11116721  0.45992458  0.26605118    -0.90900
C323        C  0.17276002  0.44269832  0.13521000     0.83000
O324        O  0.10269911  0.39339687  0.26259247    -0.69100
O325        O  0.09481287  0.36007102  0.11444430    -0.88400
C326        C  0.13012622  0.39006866  0.24906845     0.83900
C327        C  0.11849835  0.48279756  0.24512822     1.05400
H328        H  0.14144118  0.38161714  0.17845126     0.37200
O329        O  0.12501616  0.39516649  0.16909147    -1.11000
O330        O  0.06182413  0.40146247  0.14997867    -0.67700
Ni331      Ni  0.08561178  0.38435784  0.18951360     1.26300
O332        O  0.14396631  0.41279993  0.23157043    -0.67900
O333        O  0.08852932  0.34364625  0.17017621    -0.80200
C334        C  0.02944751  0.38104555  0.23472653     0.83200
O335        O  0.04610819  0.37201770  0.20866119    -0.67400
Ni336      Ni  0.12720780  0.39196786  0.11789282     1.27400
Ni337      Ni  0.12552311  0.43581810  0.19051651     1.26100
H338        H  0.06866937  0.43988516  0.19626892     0.37800
O339        O  0.23479885  0.09954452  0.99767406    -0.82200
O340        O  0.19247278  0.47170454  0.08491629    -0.66900
O341        O  0.21110050  0.05391914  0.04577697    -1.13500
C342        C  0.29698957  0.05394390  0.11659250     1.04700
O343        O  0.21429530  0.47856808  0.13938952    -0.80100
O344        O  0.21339858  0.04047775  0.13981288    -0.67700
Ni345      Ni  0.20785451  0.06153298  0.99533676     1.34900
C346        C  0.21470554  0.06757764  0.12582382     0.83400
O347        O  0.16040319  0.01315929  0.04137718    -0.80600
O348        O  0.17770935  0.02680516  0.98779692    -0.90900
C349        C  0.19504234  0.46499610  0.11847408     0.83000
O350        O  0.24424240  0.03529401  0.99120920    -0.69100
O351        O  0.27769922  0.04288128  0.13935410    -0.88400
C352        C  0.24758870  0.50786269  0.00470849     0.83900
C353        C  0.15484587  0.01943910  0.00871845     1.05400
H354        H  0.25608882  0.99640584  0.07523921     0.37200
O355        O  0.24254725  0.01281072  0.08465679    -1.11000
O356        O  0.23626673  0.07594500  0.10393798    -0.67700
Ni357      Ni  0.25333514  0.05225816  0.06431917     1.26300
O358        O  0.22484879  0.49398542  0.02215528    -0.67900
O359        O  0.29407092  0.04933217  0.08362161    -0.80200
C360        C  0.25659608  0.10848962  0.01919997     0.83200
O361        O  0.26563668  0.09180387  0.04524237    -0.67400
Ni362      Ni  0.24579984  0.01050181  0.13584491     1.27400
Ni363      Ni  0.20186557  0.01234293  0.06327863     1.26100
H364        H  0.19779683  0.06920501  0.05765178     0.37800
O365        O  0.11703589  0.17347709  0.11426289    -0.82200
O366        O  0.23004526  0.12201934  0.20864995    -0.66900
O367        O  0.15114727  0.14516847  0.16906624    -1.13500
C368        C  0.15764544  0.23279505  0.24511774     1.04700
O369        O  0.23773049  0.15283283  0.25624361    -0.80100
O370        O  0.17344687  0.14339421  0.26257202    -0.67700
Ni371      Ni  0.14896675  0.14196681  0.11786661     1.34900
C372        C  0.14602067  0.14006649  0.24904611     0.83400
O373        O  0.18763227  0.09364989  0.17015835    -0.80600
O374        O  0.18136816  0.11007311  0.11442435    -0.90900
C375        C  0.24670251  0.13104762  0.23471659     0.83000
O376        O  0.17894818  0.17437193  0.11402881    -0.69100
O377        O  0.16497390  0.20991935  0.26603771    -0.88400
C378        C  0.20602741  0.17303942  0.12806649     0.83900
C379        C  0.19236489  0.09076629  0.13721058     1.05400
H380        H  0.20748568  0.18988782  0.19625865     0.37200
O381        O  0.19217969  0.17657379  0.20808503    -1.11000
O382        O  0.13218320  0.16279614  0.23154263    -0.67700
Ni383      Ni  0.15063428  0.18581886  0.19049572     1.26300
O384        O  0.21434061  0.15146832  0.14996739    -0.67900
O385        O  0.15140378  0.22725626  0.21244582    -0.80200
C386        C  0.10341008  0.19269495  0.13517774     0.83200
O387        O  0.11004297  0.19521950  0.16875915    -0.67400
Ni388      Ni  0.19971015  0.17977461  0.25853796     1.27400
Ni389      Ni  0.19054627  0.13436051  0.18949645     1.26100
H390        H  0.13472137  0.13161819  0.17842214     0.37800
O391        O  0.06187767  0.22856215  0.13935823    -0.82200
O392        O  0.01055563  0.34181907  0.04524211    -0.66900
O393        O  0.03363648  0.26281882  0.08463619    -1.13500
C394        C  0.12133720  0.26944592  0.00869365     1.04700
O395        O  0.04138441  0.34955784  0.99766495    -0.80100
O396        O  0.03193988  0.28531005  0.99119514    -0.67700
Ni397      Ni  0.03037887  0.26049970  0.13582292     1.34900
C398        C  0.02859582  0.25787946  0.00469536     0.83400
O399        O  0.48211537  0.29934616  0.08361304    -0.80600
O400        O  0.99848338  0.29288182  0.13934298    -0.90900
C401        C  0.01959182  0.35850351  0.01919704     0.83000
O402        O  0.06278293  0.29047053  0.13980424    -0.69100
O403        O  0.09847426  0.27681906  0.98777476    -0.88400
C404        C  0.06147722  0.31757412  0.12582436     0.83900
C405        C  0.47919349  0.30394792  0.11658575     1.05400
H406        H  0.07839024  0.31921406  0.05764033     0.37200
O407        O  0.06508618  0.30393018  0.04576353    -1.11000
O408        O  0.05133911  0.24400062  0.02213342    -0.67700
Ni409      Ni  0.07431935  0.26235159  0.06325758     1.26300
O410        O  0.03992174  0.32594653  0.10393399    -0.67900
O411        O  0.11578115  0.26316754  0.04135332    -0.80200
C412        C  0.08113246  0.21499411  0.11844183     0.83200
O413        O  0.08370930  0.22170978  0.08488697    -0.67400
Ni414      Ni  0.06832906  0.31154692  0.99532233     1.27400
Ni415      Ni  0.02285195  0.30226996  0.06430897     1.26100
H416        H  0.02009427  0.24641697  0.07521445     0.37800
O417        O  0.23788032  0.40346862  0.74768368    -0.82200
O418        O  0.11004584  0.44568468  0.83492812    -0.66900
O419        O  0.19225212  0.42714709  0.79578176    -1.13500
C420        C  0.19237078  0.34124277  0.86658653     1.04700
O421        O  0.11694716  0.42385365  0.88939603    -0.80100
O422        O  0.17885720  0.42482322  0.88984846    -0.67700
Ni423      Ni  0.19985289  0.43040180  0.74534383     1.34900
C424        C  0.20596573  0.42351510  0.87587852     0.83400
O425        O  0.15144748  0.47781854  0.79139439    -0.80600
O426        O  0.16511514  0.46054622  0.73780295    -0.90900
C427        C  0.10335318  0.44308967  0.86848274     0.83000
O428        O  0.17360655  0.39401412  0.74118735    -0.69100
O429        O  0.18132703  0.36052758  0.88936391    -0.88400
C430        C  0.14616482  0.39067142  0.75466820     0.83900
C431        C  0.15770226  0.48339025  0.75873120     1.05400
H432        H  0.13478578  0.38211841  0.82524599     0.37200
O433        O  0.15118304  0.39566835  0.83466532    -1.11000
O434        O  0.21432053  0.40199387  0.85393577    -0.67700
Ni435      Ni  0.19062274  0.38491164  0.81432643     1.26300
O436        O  0.13230469  0.41338836  0.77216433    -0.67900
O437        O  0.18772408  0.34417341  0.83362375    -0.80200
C438        C  0.24684177  0.38168103  0.76921584     0.83200
O439        O  0.23016299  0.37263173  0.79525373    -0.67400
Ni440      Ni  0.14890899  0.39239484  0.88585562     1.27400
Ni441      Ni  0.15067732  0.43634964  0.81328785     1.26100
H442        H  0.20752858  0.44045931  0.80766042     0.37800
O443        O  0.04134549  0.09966097  0.00627041    -0.82200
O444        O  0.08361886  0.47197229  0.91880095    -0.66900
O445        O  0.06507334  0.05410404  0.95811827    -1.13500
C446        C  0.47925601  0.05439661  0.88722710     1.04700
O447        O  0.06187360  0.47899798  0.86430816    -0.80100
O448        O  0.06286153  0.04090477  0.86403188    -0.67700
Ni449      Ni  0.06828393  0.06163050  0.00856876     1.34900
C450        C  0.06153318  0.06799431  0.87804033     0.83400
O451        O  0.11572239  0.01327629  0.96246841    -0.80600
O452        O  0.09843341  0.02688903  0.01607384    -0.90900
C453        C  0.08107290  0.46535167  0.88522346     0.83000
O454        O  0.03190292  0.03536394  0.01264822    -0.69100
O455        O  0.99856342  0.04340703  0.86443714    -0.88400
C456        C  0.02857429  0.50792939  0.99914458     0.83900
C457        C  0.12128216  0.01949296  0.99514165     1.05400
H458        H  0.02006028  0.99670771  0.92846165     0.37200
O459        O  0.03362649  0.01311784  0.91909921    -1.11000
O460        O  0.04000100  0.07630434  0.89999528    -0.67700
Ni461      Ni  0.02285936  0.05251430  0.93951630     1.26300
O462        O  0.05127627  0.49410641  0.98158471    -0.67900
O463        O  0.48214389  0.04964585  0.92017120    -0.80200
C464        C  0.01958081  0.10865357  0.98472310     0.83200
O465        O  0.01055318  0.09200931  0.95865365    -0.67400
Ni466      Ni  0.03041594  0.01096340  0.86789631     1.27400
Ni467      Ni  0.07427840  0.01255979  0.94053094     1.26100
H468        H  0.07840388  0.06939333  0.94628694     0.37800
O469        O  0.28838542  0.34687019  0.74771389    -0.82200
O470        O  0.41612664  0.30451576  0.83511864    -0.66900
O471        O  0.33396950  0.32315360  0.79583729    -1.13500
C472        C  0.33381807  0.40897369  0.86669062     1.04700
O473        O  0.40913506  0.32624780  0.88962001    -0.80100
O474        O  0.34722101  0.32537035  0.88987572    -0.67700
Ni475      Ni  0.32640874  0.31993453  0.74539277     1.34900
C476        C  0.32013994  0.32670856  0.87584235     0.83400
O477        O  0.37475296  0.27247331  0.79145650    -0.80600
O478        O  0.36114836  0.28979599  0.73786835    -0.90900
C479        C  0.42276185  0.30703447  0.86870064     0.83000
O480        O  0.35266142  0.35631781  0.74132336    -0.69100
O481        O  0.34482110  0.38966967  0.88947618    -0.88400
C482        C  0.38009171  0.35965572  0.75483503     0.83900
C483        C  0.36851033  0.26692942  0.75878632     1.05400
H484        H  0.39144338  0.36810979  0.82546516     0.37200
O485        O  0.37501778  0.35456282  0.83482851    -1.11000
O486        O  0.31182688  0.34828504  0.85394946    -0.67700
Ni487      Ni  0.33561601  0.36537527  0.81440972     1.26300
O488        O  0.39394437  0.33693347  0.77233733    -0.67900
O489        O  0.33854430  0.40608805  0.83374116    -0.80200
C490        C  0.27943644  0.36867931  0.76922255     0.83200
O491        O  0.29611556  0.37772635  0.79526315    -0.67400
Ni492      Ni  0.37721217  0.35776675  0.88602661     1.27400
Ni493      Ni  0.37552326  0.31391154  0.81340255     1.26100
H494        H  0.31866989  0.30984308  0.80767865     0.37800
O495        O  0.98477616  0.15018768  0.00624786    -0.82200
O496        O  0.44246121  0.27802391  0.91899410    -0.66900
O497        O  0.46108384  0.19581227  0.95814176    -1.13500
C498        C  0.04698745  0.19578809  0.88734393     1.04700
O499        O  0.46429843  0.27116483  0.86452614    -0.80100
O500        O  0.46339355  0.20925744  0.86410718    -0.67700
Ni501      Ni  0.45783464  0.18820204  0.00858212     1.34900
C502        C  0.46469717  0.18215686  0.87809384     0.83400
O503        O  0.41038659  0.23657340  0.96253647    -0.80600
O504        O  0.42769432  0.22293447  0.01611847    -0.90900
C505        C  0.44503998  0.28473468  0.88543773     0.83000
O506        O  0.49422459  0.21443780  0.01270507    -0.69100
O507        O  0.02769582  0.20684229  0.86457853    -0.88400
C508        C  0.49756920  0.24186725  0.99920138     0.83900
C509        C  0.40483108  0.23030118  0.99519785     1.05400
H510        H  0.50607403  0.25332629  0.92868322     0.37200
O511        O  0.49253484  0.23692025  0.91926508    -1.11000
O512        O  0.48625494  0.17378714  0.89998454    -0.67700
Ni513      Ni  0.50332141  0.19747521  0.93960655     1.26300
O514        O  0.47482669  0.25574459  0.98175992    -0.67900
O515        O  0.04406203  0.20040236  0.92031328    -0.80200
C516        C  0.00658276  0.14124729  0.98473097     0.83200
O517        O  0.01562590  0.15793336  0.95869018    -0.67400
Ni518      Ni  0.49579844  0.23922692  0.86807902     1.27400
Ni519      Ni  0.45185020  0.23738727  0.94063643     1.26100
H520        H  0.44778245  0.18052519  0.94626648     0.37800
O521        O  0.36703149  0.07625213  0.88961730    -0.82200
O522        O  0.48005561  0.12771606  0.79526274    -0.66900
O523        O  0.40115144  0.10456640  0.83482754    -1.13500
C524        C  0.40764570  0.01693337  0.75878306     1.04700
O525        O  0.48777211  0.09687213  0.74769961    -0.80100
O526        O  0.42349637  0.10632002  0.74131846    -0.67700
Ni527      Ni  0.39895489  0.10776934  0.88602597     1.34900
C528        C  0.39606650  0.10965687  0.75483196     0.83400
O529        O  0.43763602  0.15608627  0.83374597    -0.80600
O530        O  0.43134708  0.13966953  0.88948002    -0.90900
C531        C  0.49672773  0.11867351  0.76921419     0.83000
O532        O  0.42894616  0.07537248  0.88988275    -0.69100
O533        O  0.41500918  0.03979843  0.73786368    -0.88400
C534        C  0.45602982  0.07671026  0.87585478     0.83900
C535        C  0.44235672  0.15897147  0.86669677     1.05400
H536        H  0.45749310  0.05984120  0.80767223     0.37200
O537        O  0.44219426  0.07315370  0.79583209    -1.11000
O538        O  0.38221662  0.08693536  0.77233677    -0.67700
Ni539      Ni  0.40064106  0.06391538  0.81339986     1.26300
O540        O  0.46434229  0.09827744  0.85394935    -0.67900
O541        O  0.40140710  0.02247797  0.79145398    -0.80200
C542        C  0.35340510  0.05703972  0.86869762     0.83200
O543        O  0.36003842  0.05452319  0.83511547    -0.67400
Ni544      Ni  0.44974940  0.06993655  0.74538486     1.27400
Ni545      Ni  0.44055484  0.11537337  0.81441034     1.35700
H546        H  0.38472846  0.11811602  0.82546353     0.37800
O547        O  0.31187445  0.02116652  0.86452121    -0.82200
O548        O  0.26055083  0.40793100  0.95867590    -0.66900
O549        O  0.28364452  0.48691922  0.91925857    -1.13500
C550        C  0.37135114  0.48029494  0.99518649     1.04700
O551        O  0.29142002  0.40016656  0.00621239    -0.80100
O552        O  0.28196112  0.46441568  0.01269392    -0.67700
Ni553      Ni  0.28037459  0.48922978  0.86807332     1.34900
C554        C  0.27861347  0.99184974  0.99920051     0.83400
O555        O  0.23211561  0.45041055  0.92031330    -0.80600
O556        O  0.24847518  0.45684797  0.86457543    -0.90900
C557        C  0.26960449  0.39123460  0.98470326     0.83000
O558        O  0.31277808  0.45925871  0.86409380    -0.69100
O559        O  0.34848843  0.47291978  0.01610413    -0.88400
C560        C  0.31147474  0.43215845  0.87808129     0.83900
C561        C  0.22918600  0.44579512  0.88734486     1.05400
H562        H  0.32839912  0.43052025  0.94624028     0.37200
O563        O  0.31509931  0.44580509  0.95812187    -1.11000
O564        O  0.30135247  0.00573135  0.98175646    -0.67700
Ni565      Ni  0.32433029  0.48738309  0.94062611     1.26300
O566        O  0.28991476  0.42378861  0.89996875    -0.67900
O567        O  0.36579588  0.48656879  0.96252502    -0.80200
C568        C  0.33113105  0.03473709  0.88543385     0.83200
O569        O  0.33371254  0.02802395  0.91898949    -0.67400
Ni570      Ni  0.31835437  0.43818425  0.00855826     1.27400
Ni571      Ni  0.27285775  0.44747412  0.93959697     1.26100
H572        H  0.27010680  0.50332537  0.92868037     0.37800
O573        O  0.15923015  0.17384876  0.88936530    -0.82200
O574        O  0.04599780  0.12262806  0.79524790    -0.66900
O575        O  0.12498404  0.14566048  0.83464375    -1.13500
C576        C  0.11845215  0.23338827  0.75871830     1.04700
O577        O  0.03828639  0.15345238  0.74766499    -0.80100
O578        O  0.10255825  0.14401087  0.74116616    -0.67700
Ni579      Ni  0.12726808  0.14239042  0.88583379     1.34900
C580        C  0.12999849  0.14067028  0.75464977     0.83400
O581        O  0.08843492  0.09416576  0.83361893    -0.80600
O582        O  0.09485193  0.11052483  0.88935471    -0.90900
C583        C  0.02932287  0.13167105  0.76920408     0.83000
O584        O  0.09731889  0.17481848  0.88983215    -0.69100
O585        O  0.11103800  0.21054716  0.73778628    -0.88400
C586        C  0.07020725  0.17350958  0.87587013     0.83900
C587        C  0.08379997  0.09123857  0.86658519     1.05400
H588        H  0.06863302  0.19045019  0.80764509     0.37200
O589        O  0.08390966  0.17713799  0.79576555    -1.11000
O590        O  0.14385686  0.16338992  0.77214076    -0.67700
Ni591      Ni  0.12548440  0.18634347  0.81326788     1.26300
O592        O  0.06184899  0.15199004  0.85392724    -0.67900
O593        O  0.12470741  0.22781296  0.79137990    -0.80200
C594        C  0.17281758  0.19308727  0.86844987     0.83200
O595        O  0.16611789  0.19568265  0.83489794    -0.67400
Ni596      Ni  0.07630706  0.18039396  0.74532689     1.27400
Ni597      Ni  0.08554006  0.13490376  0.81431454     1.26100
H598        H  0.14137997  0.13211092  0.82522032     0.37800
O599        O  0.21429113  0.22900329  0.86426722    -0.82200
O600        O  0.26563665  0.34199262  0.95862743    -0.66900
O601        O  0.24254746  0.26310980  0.91905986    -1.13500
C602        C  0.15489964  0.26948963  0.99511246     1.04700
O603        O  0.23483115  0.34965480  0.00623129    -0.80100
O604        O  0.24427847  0.28535814  0.01261005    -0.67700
Ni605      Ni  0.24575323  0.26096491  0.86785605     1.34900
C606        C  0.24760859  0.25792163  0.99911155     0.83400
O607        O  0.29403241  0.29962127  0.92013964    -0.80600
O608        O  0.27761034  0.29340615  0.86440394    -0.90900
C609        C  0.25660380  0.35864165  0.98469137     0.83000
O610        O  0.21330975  0.29091058  0.86400637    -0.69100
O611        O  0.17775150  0.27688070  0.01604109    -0.88400
C612        C  0.21464224  0.31799647  0.87802331     0.83900
C613        C  0.29691804  0.30438587  0.88719857     1.05400
H614        H  0.19777588  0.31938736  0.94625479     0.37200
O615        O  0.21110583  0.30409668  0.95808480    -1.11000
O616        O  0.22490887  0.24409810  0.98154808    -0.67700
Ni617      Ni  0.20189891  0.26255308  0.94049675     1.26300
O618        O  0.23618309  0.32630055  0.89996897    -0.67900
O619        O  0.16045623  0.26327034  0.96243902    -0.80200
C620        C  0.19509798  0.21535130  0.88518611     0.83200
O621        O  0.19255801  0.22196723  0.91876563    -0.67400
Ni622      Ni  0.20789625  0.31162361  0.00853366     1.27400
Ni623      Ni  0.25332014  0.30250110  0.93948448     1.26100
H624        H  0.25611273  0.24669629  0.92841681     0.37800
O625        O  0.06186805  0.27075890  0.36426153    -0.82200
O626        O  0.01053291  0.15776732  0.45861899    -0.66900
O627        O  0.03361871  0.23664904  0.41905473    -1.13500
C628        C  0.12127009  0.23027804  0.49510978     1.04700
O629        O  0.04132853  0.15011290  0.50623224    -0.80100
O630        O  0.03189084  0.21440967  0.51260620    -0.67700
Ni631      Ni  0.03040006  0.23880250  0.36785171     1.34900
C632        C  0.02856329  0.24184469  0.49910391     0.83400
O633        O  0.48213117  0.20013657  0.42013786    -0.80600
O634        O  0.99853847  0.20636417  0.36439899    -0.90900
C635        C  0.01956070  0.14112321  0.48468823     0.83000
O636        O  0.06283548  0.20885172  0.36397884    -0.69100
O637        O  0.09842016  0.22287923  0.51603844    -0.88400
C638        C  0.06150544  0.18176518  0.37799412     0.83900
C639        C  0.47923999  0.19537368  0.38719693     1.05400
H640        H  0.07838754  0.18036914  0.44624577     0.37200
O641        O  0.06506055  0.19566176  0.45807771    -1.11000
O642        O  0.05126474  0.25566409  0.48153958    -0.67700
Ni643      Ni  0.07427035  0.23720346  0.44048857     1.26300
O644        O  0.03997719  0.17346202  0.39995641    -0.67900
O645        O  0.11571347  0.23648652  0.46243318    -0.80200
C646        C  0.08106972  0.28440418  0.38517602     0.83200
O647        O  0.08361483  0.27778665  0.41875451    -0.67400
Ni648      Ni  0.06826952  0.18813969  0.50852945     1.27400
Ni649      Ni  0.02284585  0.19725827  0.43947783     1.26100
H650        H  0.02005494  0.25306169  0.42841670     0.37800
O651        O  0.11693670  0.32590782  0.38934769    -0.82200
O652        O  0.23017600  0.37711008  0.29523231    -0.66900
O653        O  0.15118879  0.35408236  0.33462410    -1.13500
C654        C  0.15770883  0.26635667  0.25869948     1.04700
O655        O  0.23789744  0.34627750  0.24765876    -0.80100
O656        O  0.17362613  0.35573137  0.24115422    -0.67700
Ni657      Ni  0.14889947  0.35736493  0.38581195     1.34900
C658        C  0.14618446  0.35907425  0.25463491     0.83400
O659        O  0.18773355  0.40557701  0.33358630    -0.80600
O660        O  0.18131727  0.38923053  0.38932608    -0.90900
C661        C  0.24685601  0.36806364  0.26919442     0.83000
O662        O  0.17884451  0.32493647  0.38982268    -0.69100
O663        O  0.16513524  0.28919555  0.23776969    -0.88400
C664        C  0.20595676  0.32624036  0.37586250     0.83900
C665        C  0.19236733  0.40851297  0.36655101     1.05400
H666        H  0.20754130  0.30928817  0.30763633     0.37200
O667        O  0.19226564  0.32259897  0.29575374    -1.11000
O668        O  0.13232272  0.33635428  0.27212313    -0.67700
Ni669      Ni  0.15068849  0.31339843  0.31325281     1.26300
O670        O  0.21431913  0.34775495  0.35391494    -0.67900
O671        O  0.15146059  0.27193042  0.29136325    -0.80200
C672        C  0.10335193  0.30666435  0.36843568     0.83200
O673        O  0.11005384  0.30406266  0.33488430    -0.67400
Ni674      Ni  0.19987149  0.31934261  0.24531574     1.27400
Ni675      Ni  0.19063288  0.36483544  0.31429531     1.26100
H676        H  0.13479374  0.36763128  0.32519784     0.37800
O677        O  0.46428199  0.47858409  0.36454210    -0.82200
O678        O  0.01560422  0.09184061  0.45866440    -0.66900
O679        O  0.49252019  0.01284154  0.41926800    -1.13500
C680        C  0.40480637  0.01948181  0.49517821     1.04700
O681        O  0.98475280  0.09959752  0.50621936    -0.80100
O682        O  0.49419528  0.03535293  0.51270801    -0.67700
Ni683      Ni  0.49578470  0.01051794  0.36808224     1.34900
C684        C  0.49754253  0.50792021  0.49921533     0.83400
O685        O  0.04404439  0.04935997  0.42030449    -0.80600
O686        O  0.02768272  0.04289700  0.36457041    -0.90900
C687        C  0.00656012  0.10853198  0.48470071     0.83000
O688        O  0.46338235  0.04049129  0.36409482    -0.69100
O689        O  0.42766290  0.02686043  0.51610311    -0.88400
C690        C  0.46468426  0.06759352  0.37807902     0.83900
C691        C  0.04696991  0.05396286  0.38733282     1.05400
H692        H  0.44776445  0.06924567  0.44624092     0.37200
O693        O  0.46106497  0.05396240  0.45812380    -1.11000
O694        O  0.47480399  0.49403889  0.48177112    -0.67700
Ni695      Ni  0.45183426  0.01238225  0.44063389     1.26300
O696        O  0.48624509  0.07596781  0.39996210    -0.67900
O697        O  0.41036857  0.01320352  0.46252096    -0.80200
C698        C  0.44502433  0.46502012  0.38545837     0.83200
O699        O  0.44244725  0.47173836  0.41901220    -0.67400
Ni700      Ni  0.45780708  0.06158828  0.50856057     1.27400
Ni701      Ni  0.50330424  0.05229280  0.43959490     1.26100
H702        H  0.50605834  0.99643832  0.42869501     0.37800
O703        O  0.40911533  0.42351023  0.38964506    -0.82200
O704        O  0.29611732  0.37202896  0.29526123    -0.66900
O705        O  0.37500819  0.39519381  0.33484608    -1.13500
C706        C  0.36850566  0.48282153  0.25880467     1.04700
O707        O  0.28840321  0.40287037  0.24769693    -0.80100
O708        O  0.35268112  0.39342957  0.24133795    -0.67700
Ni709      Ni  0.37718963  0.39199470  0.38604454     1.34900
C710        C  0.38010846  0.39009574  0.25485842     0.83400
O711        O  0.33853632  0.34366891  0.33375053    -0.80600
O712        O  0.34479577  0.36009437  0.38948489    -0.90900
C713        C  0.27944841  0.38106679  0.26920881     0.83000
O714        O  0.34720016  0.42439535  0.38988114    -0.69100
O715        O  0.36116036  0.45995208  0.23788351    -0.88400
C716        C  0.32012139  0.42305757  0.37584180     0.83900
C717        C  0.33380173  0.34078603  0.36669815     1.05400
H718        H  0.31866320  0.43991034  0.30767306     0.37200
O719        O  0.33396719  0.42659875  0.29583980    -1.11000
O720        O  0.39395281  0.41282119  0.27236295    -0.67700
Ni721      Ni  0.37551531  0.43584306  0.31341936     1.26300
O722        O  0.31181248  0.40147853  0.35394898    -0.67900
O723        O  0.37474452  0.47727994  0.29147553    -0.80200
C724        C  0.42274437  0.44272188  0.36872599     0.83200
O725        O  0.41611153  0.44524109  0.33514429    -0.67400
Ni726      Ni  0.32642279  0.42981072  0.24539174     1.27400
Ni727      Ni  0.33561133  0.38438073  0.31441737     1.26100
H728        H  0.39143632  0.38164654  0.32548895     0.37800
O729        O  0.23480475  0.40012104  0.50622855    -0.82200
O730        O  0.19252170  0.02779477  0.41874966    -0.66900
O731        O  0.21107595  0.44567096  0.45807616    -1.13500
C732        C  0.29689718  0.44538278  0.38719373     1.04700
O733        O  0.21426316  0.02075898  0.36425438    -0.80100
O734        O  0.21329612  0.45885050  0.36398016    -0.67700
Ni735      Ni  0.20786854  0.43815040  0.50852812     1.34900
C736        C  0.21462888  0.43176496  0.37799820     0.83400
O737        O  0.16042418  0.48649714  0.46243597    -0.80600
O738        O  0.17772476  0.47289448  0.51603866    -0.90900
C739        C  0.19506553  0.03440931  0.38517000     0.83000
O740        O  0.24424999  0.46441546  0.51259875    -0.69100
O741        O  0.27759510  0.45636677  0.36439553    -0.88400
C742        C  0.24757928  0.99184955  0.49909444     0.83900
C743        C  0.15487166  0.48028889  0.49511363     1.05400
H744        H  0.25607906  0.50307004  0.42840576     0.37200
O745        O  0.24251536  0.48665587  0.41904789    -1.11000
O746        O  0.23616037  0.42346542  0.39995798    -0.67700
Ni747      Ni  0.25329087  0.44726773  0.43947531     1.26300
O748        O  0.22487705  0.00567142  0.48153343    -0.67900
O749        O  0.29400555  0.45014723  0.42013442    -0.80200
C750        C  0.25657698  0.39113389  0.48468850     0.83200
O751        O  0.26560791  0.40777963  0.45862180    -0.67400
Ni752      Ni  0.24573104  0.48880328  0.36784516     1.27400
Ni753      Ni  0.20186569  0.48721224  0.44048594     1.26100
H754        H  0.19774882  0.43037810  0.44624556     0.37800
O755        O  0.03824462  0.09627887  0.24764728    -0.82200
O756        O  0.16608705  0.05407213  0.33487743    -0.66900
O757        O  0.08387606  0.07260404  0.29574498    -1.13500
C758        C  0.08376715  0.15851608  0.36654257     1.04700
O759        O  0.15920077  0.07591502  0.38934065    -0.80100
O760        O  0.09729474  0.07494111  0.38981127    -0.67700
Ni761      Ni  0.07627176  0.06934389  0.24530762     1.34900
C762        C  0.07018279  0.07624311  0.37585095     0.83400
O763        O  0.12468208  0.02193721  0.29136487    -0.80600
O764        O  0.11100844  0.03919550  0.23776826    -0.90900
C765        C  0.17278621  0.05667165  0.36842920     0.83000
O766        O  0.10251774  0.10573169  0.24114016    -0.69100
O767        O  0.09481904  0.13923406  0.38931630    -0.88400
C768        C  0.12995970  0.10907473  0.25461948     0.83900
C769        C  0.11843371  0.01635962  0.25870297     1.05400
H770        H  0.14134412  0.11764014  0.32518655     0.37200
O771        O  0.12495011  0.10409073  0.33461393    -1.11000
O772        O  0.06181880  0.09775781  0.35390447    -0.67700
Ni773      Ni  0.08550469  0.11484027  0.31428540     1.26300
O774        O  0.14381992  0.08635717  0.27211322    -0.67900
O775        O  0.08839898  0.15558158  0.33357711    -0.80200
C776        C  0.02928257  0.11806293  0.26918448     0.83200
O777        O  0.04596089  0.12711065  0.29522250    -0.67400
Ni778      Ni  0.12723777  0.10737108  0.38580248     1.27400
Ni779      Ni  0.12545281  0.06340621  0.31324618     1.26100
H780        H  0.06860106  0.05929232  0.30762732     0.37800
O781        O  0.29138824  0.34961228  0.50622160    -0.82200
O782        O  0.33370792  0.22175083  0.41902341    -0.66900
O783        O  0.31508064  0.30397646  0.45813132    -1.13500
C784        C  0.22917223  0.30396280  0.38734511     1.04700
O785        O  0.31186664  0.22858969  0.36455574    -0.80100
O786        O  0.31276154  0.29049886  0.36410293    -0.67700
Ni787      Ni  0.31833482  0.31160357  0.50856828     1.34900
C788        C  0.31145675  0.31760195  0.37808495     0.83400
O789        O  0.36578088  0.26322080  0.46253467    -0.80600
O790        O  0.34848211  0.27687776  0.51611614    -0.90900
C791        C  0.33112626  0.21502752  0.38547108     0.83000
O792        O  0.28194708  0.28536627  0.51271190    -0.69100
O793        O  0.24846038  0.29289797  0.36458247    -0.88400
C794        C  0.27860360  0.25793325  0.49921715     0.83900
C795        C  0.37134028  0.26949681  0.49519339     1.05400
H796        H  0.27009368  0.24644632  0.42870720     0.37200
O797        O  0.28362985  0.26285059  0.41927915    -1.11000
O798        O  0.28989553  0.32597578  0.39996827    -0.67700
Ni799      Ni  0.27284077  0.30230166  0.43960387     1.26300
O800        O  0.30134755  0.24405305  0.48178056    -0.67900
O801        O  0.23209974  0.29936252  0.42031694    -0.80200
C802        C  0.26957981  0.35854363  0.48470314     0.83200
O803        O  0.26053601  0.34184934  0.45866966    -0.67400
Ni804      Ni  0.28036262  0.26052290  0.36809470     1.27400
Ni805      Ni  0.32431644  0.26239600  0.44064395     1.26100
H806        H  0.32837889  0.31926091  0.44624763     0.37800
O807        O  0.48773456  0.15286935  0.24769274    -0.82200
O808        O  0.36003172  0.19524094  0.33515438    -0.66900
O809        O  0.44217299  0.17659441  0.29584164    -1.13500
C810        C  0.44233677  0.09077665  0.36669430     1.04700
O811        O  0.36702752  0.17350775  0.38965384    -0.80100
O812        O  0.42894082  0.17438208  0.38988691    -0.67700
Ni813      Ni  0.44971536  0.17981041  0.24539300     1.34900
C814        C  0.45601851  0.17304666  0.37584437     0.83400
O815        O  0.40139842  0.22727943  0.29148377    -0.80600
O816        O  0.41497713  0.20995186  0.23789000    -0.90900
C817        C  0.35340144  0.19272374  0.36873712     0.83000
O818        O  0.42345769  0.14343035  0.24133884    -0.69100
O819        O  0.43133981  0.11008184  0.38948322    -0.88400
C820        C  0.39603167  0.14009564  0.25486242     0.83900
C821        C  0.40763547  0.23282172  0.25881231     1.05400
H822        H  0.38470286  0.13164385  0.32549119     0.37200
O823        O  0.40113175  0.14518948  0.33484893    -1.11000
O824        O  0.46432798  0.15146978  0.35394827    -0.67700
Ni825      Ni  0.44052805  0.13437519  0.31441606     1.26300
O826        O  0.38218705  0.16282076  0.27236840    -0.67900
O827        O  0.43760318  0.09366212  0.33374675    -0.80200
C828        C  0.49668952  0.13106316  0.26920103     0.83200
O829        O  0.48002103  0.12202276  0.29525350    -0.67400
Ni830      Ni  0.39894868  0.14198612  0.38604741     1.27400
Ni831      Ni  0.40062620  0.18584056  0.31342516     1.26100
H832        H  0.45747823  0.18990409  0.30767511     0.37800
O833        O  0.04137879  0.90022643  0.49766714    -0.82200
O834        O  0.08368760  0.52805970  0.58493524    -0.66900
O835        O  0.06506998  0.94585172  0.54577215    -1.13500
C836        C  0.47917659  0.94580919  0.61658473     1.04700
O837        O  0.06186414  0.52118351  0.63940832    -0.80100
O838        O  0.06277033  0.95927771  0.63981200    -0.67700
Ni839      Ni  0.06831135  0.93824612  0.49533040     1.34900
C840        C  0.06146493  0.93217889  0.62582182     0.83400
O841        O  0.11576179  0.98661990  0.54136770    -0.80600
O842        O  0.09844275  0.97298424  0.48779025    -0.90900
C843        C  0.08111602  0.53476093  0.61849544     0.83000
O844        O  0.03191666  0.96447756  0.49121939    -0.69100
O845        O  0.99846870  0.95685916  0.63935089    -0.88400
C846        C  0.02856886  0.49190806  0.50472218     0.83900
C847        C  0.12131173  0.98034596  0.50870457     1.05400
H848        H  0.02007778  0.00335569  0.57525396     0.37200
O849        O  0.03362103  0.98694971  0.58466509    -1.11000
O850        O  0.03990809  0.92381282  0.60392868    -0.67700
Ni851      Ni  0.02283516  0.94750765  0.56431608     1.26300
O852        O  0.05130814  0.50578698  0.52216879    -0.67900
O853        O  0.48209878  0.95043055  0.58361656    -0.80200
C854        C  0.01957717  0.89128113  0.51918750     0.83200
O855        O  0.01053183  0.90796692  0.54522791    -0.67400
Ni856      Ni  0.03036421  0.98924605  0.63585286     1.27400
Ni857      Ni  0.07430110  0.98742570  0.56328191     1.26100
H858        H  0.07837501  0.93056526  0.55764321     0.37800
O859        O  0.23776726  0.59691414  0.75622841    -0.82200
O860        O  0.11004132  0.55453064  0.66881182    -0.66900
O861        O  0.19219760  0.57317708  0.70809138    -1.13500
C862        C  0.19234922  0.65899231  0.63721482     1.04700
O863        O  0.11701230  0.57627995  0.61431673    -0.80100
O864        O  0.17892726  0.57539643  0.61403152    -0.67700
Ni865      Ni  0.19974945  0.56997107  0.75854177     1.34900
C866        C  0.20601323  0.57673152  0.62805355     0.83400
O867        O  0.15142030  0.52249415  0.71247645    -0.80600
O868        O  0.16501751  0.53982306  0.76606482    -0.90900
C869        C  0.10339551  0.55705867  0.63523369     0.83000
O870        O  0.17348734  0.60635075  0.76259657    -0.69100
O871        O  0.18133188  0.63969152  0.61443572    -0.88400
C872        C  0.14605743  0.60967829  0.74908051     0.83900
C873        C  0.15766475  0.51695255  0.74514753     1.05400
H874        H  0.13472812  0.61813564  0.67846819     0.37200
O875        O  0.15114886  0.60458611  0.66909928    -1.11000
O876        O  0.21433211  0.59829489  0.64995998    -0.67700
Ni877      Ni  0.19055810  0.61539335  0.68950587     1.26300
O878        O  0.13221349  0.58694767  0.73158657    -0.67900
O879        O  0.18764047  0.65610579  0.67016798    -0.80200
C880        C  0.24673335  0.61869807  0.73469713     0.83200
O881        O  0.23006774  0.62772870  0.70863786    -0.67400
Ni882      Ni  0.14893884  0.60779382  0.61790118     1.27400
Ni883      Ni  0.15064437  0.56393190  0.69052586     1.26100
H884        H  0.20749853  0.55986509  0.69625314     0.37800
O885        O  0.21428975  0.77118714  0.63939211    -0.82200
O886        O  0.26561366  0.65796467  0.54521112    -0.66900
O887        O  0.24252843  0.73695026  0.58464676    -1.13500
C888        C  0.15483230  0.73034273  0.50869456     1.04700
O889        O  0.23478103  0.65023676  0.49763679    -0.80100
O890        O  0.24423269  0.71449164  0.49120220    -0.67700
Ni891      Ni  0.24578697  0.73924700  0.63583427     1.34900
C892        C  0.24757625  0.74191940  0.50471162     0.83400
O893        O  0.29405173  0.70042483  0.58359832    -0.80600
O894        O  0.27768053  0.70685854  0.63933220    -0.90900
C895        C  0.25657547  0.64128474  0.51916309     0.83000
O896        O  0.21337916  0.70928041  0.63979673    -0.69100
O897        O  0.17770176  0.72298763  0.48777656    -0.88400
C898        C  0.21468290  0.68218064  0.62580818     0.83900
C899        C  0.29697459  0.69580719  0.61656718     1.05400
H900        H  0.19777520  0.68056572  0.55762107     0.37200
O901        O  0.21108009  0.69585383  0.54575228    -1.11000
O902        O  0.22483269  0.75579390  0.52215533    -0.67700
Ni903      Ni  0.20184629  0.73742625  0.56326740     1.26300
O904        O  0.23623711  0.67381341  0.60391112    -0.67900
O905        O  0.16038399  0.73661779  0.54135707    -0.80200
C906        C  0.19503353  0.78476215  0.61848291     0.83200
O907        O  0.19245626  0.77805813  0.58492415    -0.67400
Ni908      Ni  0.20784151  0.68825396  0.49530855     1.27400
Ni909      Ni  0.25331364  0.69750677  0.56429817     1.26100
H910        H  0.25607152  0.75335617  0.57523471     0.37800
O911        O  0.15913373  0.82627891  0.61430888    -0.82200
O912        O  0.04608911  0.87773280  0.70864778    -0.66900
O913        O  0.12500561  0.85458861  0.66909888    -1.13500
C914        C  0.11849301  0.76695256  0.74514087     1.04700
O915        O  0.03839095  0.84691734  0.75623714    -0.80100
O916        O  0.10267430  0.85635102  0.76260346    -0.67700
Ni917      Ni  0.12720643  0.85779186  0.61789960     1.34900
C918        C  0.13010460  0.85968091  0.74908791     0.83400
O919        O  0.08851533  0.90610618  0.67017342    -0.80600
O920        O  0.09481148  0.88968823  0.61444062    -0.90900
C921        C  0.02942317  0.86870194  0.73470688     0.83000
O922        O  0.09721968  0.82539221  0.61404109    -0.69100
O923        O  0.11114153  0.78982127  0.76606213    -0.88400
C924        C  0.07013531  0.82672779  0.62806742     0.83900
C925        C  0.08380004  0.90899090  0.63722182     1.05400
H926        H  0.06866062  0.80986643  0.69626043     0.37200
O927        O  0.08396132  0.82317967  0.70809669    -1.11000
O928        O  0.14394807  0.83695408  0.73158521    -0.67700
Ni929      Ni  0.12551428  0.81393607  0.69052565     1.26300
O930        O  0.06181838  0.84829443  0.64997115    -0.67900
O931        O  0.12474129  0.77249775  0.71247192    -0.80200
C932        C  0.17275576  0.80706053  0.63522464     0.83200
O933        O  0.16611594  0.80453580  0.66880490    -0.67400
Ni934      Ni  0.07641024  0.81997245  0.75854615     1.27400
Ni935      Ni  0.08559793  0.86539529  0.68951159     1.26100
H936        H  0.14142712  0.86813890  0.67846428     0.37800
O937        O  0.31185411  0.97901988  0.63959286    -0.82200
O938        O  0.26053780  0.59204324  0.54524276    -0.66900
O939        O  0.28359930  0.51314138  0.58479781    -1.13500
C940        C  0.37124433  0.51951506  0.50875242     1.04700
O941        O  0.29132316  0.59968544  0.49761810    -0.80100
O942        O  0.28186683  0.53538679  0.49125251    -0.67700
Ni943      Ni  0.28039647  0.51098725  0.63600129     1.34900
C944        C  0.27853737  0.00795121  0.50475255     0.83400
O945        O  0.23212275  0.54967922  0.58372635    -0.80600
O946        O  0.24854495  0.54343027  0.63945862    -0.90900
C947        C  0.26956531  0.60868571  0.51917052     0.83000
O948        O  0.31284383  0.54092791  0.63985643    -0.69100
O949        O  0.34839207  0.52690015  0.48782163    -0.88400
C950        C  0.31151674  0.56801750  0.62584815     0.83900
C951        C  0.22923687  0.55442123  0.61667231     1.05400
H952        H  0.32838099  0.56941306  0.55760184     0.37200
O953        O  0.31504758  0.55412426  0.54577397    -1.11000
O954        O  0.30123957  0.99412600  0.52231083    -0.67700
Ni955      Ni  0.32424913  0.51257799  0.56336450     1.26300
O956        O  0.28998235  0.57633009  0.60389832    -0.67900
O957        O  0.36568892  0.51329331  0.54142457    -0.80200
C958        C  0.33105258  0.96536959  0.61867936     0.83200
O959        O  0.33359424  0.97198866  0.58509956    -0.67400
Ni960      Ni  0.31825272  0.56164809  0.49532223     1.27400
Ni961      Ni  0.27283649  0.55254219  0.56437911     1.26100
H962        H  0.27003001  0.49673281  0.57543756     0.37800
O963        O  0.36693674  0.92387270  0.61451085    -0.82200
O964        O  0.48014814  0.87264458  0.70867404    -0.66900
O965        O  0.40116405  0.89566739  0.66924863    -1.13500
C966        C  0.40766396  0.98337316  0.74520104     1.04700
O967        O  0.48785144  0.90347374  0.75625397    -0.80100
O968        O  0.42357965  0.89400163  0.76273524    -0.67700
Ni969      Ni  0.39889746  0.89241002  0.61805644     1.34900
C970        C  0.39614049  0.89065162  0.74925122     0.83400
O971        O  0.43772298  0.84418034  0.67028501    -0.80600
O972        O  0.43131428  0.86054275  0.61454810    -0.90900
C973        C  0.49682267  0.88169430  0.73471615     0.83000
O974        O  0.42884789  0.92483836  0.61408006    -0.69100
O975        O  0.41506751  0.96052546  0.76612683    -0.88400
C976        C  0.45595542  0.92352970  0.62805200     0.83900
C977        C  0.44236268  0.84125564  0.63731966     1.05400
H978        H  0.45749511  0.94046465  0.69627585     0.37200
O979        O  0.44222036  0.92714664  0.70814930    -1.11000
O980        O  0.38227391  0.91336456  0.73175297    -0.67700
Ni981      Ni  0.40064480  0.93634316  0.69063672     1.26300
O982        O  0.46430863  0.90200848  0.64999465    -0.67900
O983        O  0.40140585  0.97780619  0.71253858    -0.80200
C984        C  0.35333241  0.94310142  0.63542472     0.83200
O985        O  0.36001292  0.94568066  0.66898533    -0.67400
Ni986      Ni  0.44981566  0.93039569  0.75858991     1.27400
Ni987      Ni  0.44060587  0.88491558  0.68959407     1.26100
H988        H  0.38476868  0.88211115  0.67866104     0.37800
O989        O  0.98482735  0.84968652  0.49764405    -0.82200
O990        O  0.44255326  0.72199153  0.58511225    -0.66900
O991        O  0.46110115  0.80412685  0.54579575    -1.13500
C992        C  0.04691166  0.80441544  0.61669100     1.04700
O993        O  0.46429566  0.72901595  0.63960594    -0.80100
O994        O  0.46330467  0.79092365  0.63987827    -0.67700
Ni995      Ni  0.45789663  0.81165301  0.49534490     1.34900
C996        C  0.46463262  0.81801317  0.62586989     0.83400
O997        O  0.41045582  0.76330077  0.54144242    -0.80600
O998        O  0.42775523  0.77690852  0.48784107    -0.90900
C999        C  0.44509788  0.71536819  0.61869008     0.83000
O1000       O  0.49428071  0.78538857  0.49127167    -0.69100
O1001       O  0.02760400  0.79342502  0.63947860    -0.88400
C1002       C  0.49760794  0.75795107  0.50476845     0.83900
C1003       C  0.40490130  0.76952533  0.50877039     1.05400
H1004       H  0.50611558  0.74673088  0.57545348     0.37200
O1005       O  0.49254750  0.76313961  0.58481543    -1.11000
O1006       O  0.48616836  0.82632554  0.60392171    -0.67700
Ni1007     Ni  0.50331239  0.80253980  0.56440015     1.26300
O1008       O  0.47490542  0.74412793  0.52232785    -0.67900
O1009       O  0.04402550  0.79967069  0.58374570    -0.80200
C1010       C  0.00658580  0.85868393  0.51919617     0.83200
O1011       O  0.01561314  0.84204004  0.54526701    -0.67400
Ni1012     Ni  0.49575228  0.76098303  0.63601900     1.27400
Ni1013     Ni  0.45189720  0.76258084  0.56338212     1.26100
H1014       H  0.44776852  0.81941586  0.55762506     0.37800
O1015       O  0.28830372  0.65346239  0.75624889    -0.82200
O1016       O  0.41613644  0.69567796  0.66898946    -0.66900
O1017       O  0.33393019  0.67714254  0.70814549    -1.13500
C1018       C  0.33378673  0.59125905  0.63730125     1.04700
O1019       O  0.40921911  0.67387105  0.61451330    -0.80100
O1020       O  0.34730761  0.67484171  0.61407173    -0.67700
Ni1021     Ni  0.32633487  0.68038822  0.75858701     1.34900
C1022       C  0.32019811  0.67353144  0.62803948     0.83400
O1023       O  0.37474246  0.72780251  0.71254028    -0.80600
O1024       O  0.36107898  0.71052188  0.76612843    -0.90900
C1025       C  0.42282006  0.69309879  0.63543035     0.83000
O1026       O  0.35257416  0.64399665  0.76273170    -0.69100
O1027       O  0.34483778  0.61054726  0.61453276    -0.88400
C1028       C  0.38001381  0.64064946  0.74924798     0.83900
C1029       C  0.36848569  0.73336919  0.74520339     1.05400
H1030       H  0.39138164  0.63210850  0.67865546     0.37200
O1031       O  0.37498729  0.64566576  0.66924257    -1.11000
O1032       O  0.31184463  0.65201207  0.64998443    -0.67700
Ni1033     Ni  0.33554502  0.63491365  0.68958289     1.26300
O1034       O  0.39387776  0.66336291  0.73174941    -0.67900
O1035       O  0.33842665  0.59418011  0.67026702    -0.80200
C1036       C  0.27933164  0.63168841  0.73470527     0.83200
O1037       O  0.29600327  0.62264363  0.70865867    -0.67400
Ni1038     Ni  0.37725671  0.64241134  0.61805000     1.27400
Ni1039     Ni  0.37550497  0.68634049  0.69063533     1.26100
H1040       H  0.31865582  0.69046174  0.69627296     0.37800
O1041       O  0.48787525  0.84627718  0.25628421    -0.82200
O1042       O  0.36003799  0.80407663  0.16901507    -0.66900
O1043       O  0.44224427  0.82260342  0.20817989    -1.13500
C1044       C  0.44238904  0.90849893  0.13735517     1.04700
O1045       O  0.36695554  0.82589480  0.11454490    -0.80100
O1046       O  0.42886340  0.82491642  0.11410828    -0.67700
Ni1047     Ni  0.44983769  0.81935646  0.25862097     1.34900
C1048       C  0.45597364  0.82622208  0.12807228     0.83400
O1049       O  0.40142551  0.77194920  0.21256754    -0.80600
O1050       O  0.41508913  0.78922536  0.26615897    -0.90900
C1051       C  0.35335424  0.80666275  0.13545635     0.83000
O1052       O  0.42360103  0.85575249  0.26276511    -0.69100
O1053       O  0.43134308  0.88921081  0.11458371    -0.88400
C1054       C  0.39616156  0.85910086  0.24928059     0.83900
C1055       C  0.40767553  0.76638129  0.24523142     1.05400
H1056       H  0.38479545  0.86764420  0.17869684     0.37200
O1057       O  0.40118941  0.85408716  0.16928227    -1.11000
O1058       O  0.46433109  0.84773664  0.15002245    -0.67700
Ni1059     Ni  0.44063182  0.86483417  0.18962484     1.26300
O1060       O  0.38229722  0.83638619  0.23178392    -0.67900
O1061       O  0.43775200  0.90557143  0.17032036    -0.80200
C1062       C  0.49684745  0.86805334  0.23474277     0.83200
O1063       O  0.48017364  0.87710103  0.20870043    -0.67400
Ni1064     Ni  0.39892084  0.85735012  0.11809158     1.27400
Ni1065     Ni  0.40066890  0.81341069  0.19066681     1.26100
H1066       H  0.45751872  0.80928455  0.19630620     0.37800
O1067       O  0.29134730  0.65008378  0.99765846    -0.82200
O1068       O  0.33361674  0.77777980  0.08513048    -0.66900
O1069       O  0.31506996  0.69564426  0.04581187    -1.13500
C1070       C  0.22924872  0.69535746  0.11669812     1.04700
O1071       O  0.31187103  0.77075284  0.13962283    -0.80100
O1072       O  0.31284284  0.70884425  0.13991046    -0.67700
Ni1073     Ni  0.31827796  0.68811800  0.99535982     1.34900
C1074       C  0.31151616  0.68175503  0.12590025     0.83400
O1075       O  0.36571472  0.73647409  0.04145368    -0.80600
O1076       O  0.34841769  0.72286407  0.98785186    -0.90900
C1077       C  0.33107285  0.78439918  0.11871000     0.83000
O1078       O  0.28189370  0.71438072  0.99128318    -0.69100
O1079       O  0.24854599  0.70635692  0.13949115    -0.88400
C1080       C  0.27856383  0.74181807  0.00477976     0.83900
C1081       C  0.37126964  0.73025599  0.00877942     1.05400
H1082       H  0.27005360  0.75303947  0.07546489     0.37200
O1083       O  0.28362099  0.73663134  0.08482975    -1.11000
O1084       O  0.28999052  0.67344626  0.10393850    -0.67700
Ni1085     Ni  0.27285666  0.69723195  0.06441290     1.26300
O1086       O  0.30126375  0.75564259  0.02234237    -0.67900
O1087       O  0.23214145  0.70010178  0.08375343    -0.80200
C1088       C  0.26958740  0.64108644  0.01920889     0.83200
O1089       O  0.26055735  0.65773056  0.04527895    -0.67400
Ni1090     Ni  0.28040540  0.73879391  0.13603301     1.27400
Ni1091     Ni  0.32427290  0.73719082  0.06339701     1.26100
H1092       H  0.32839998  0.68035516  0.05764463     0.37800
O1093       O  0.46428791  0.52074800  0.13963693    -0.82200
O1094       O  0.01562238  0.90773945  0.04528466    -0.66900
O1095       O  0.49254531  0.98663238  0.08484531    -1.13500
C1096       C  0.40490985  0.98025853  0.00877441     1.04700
O1097       O  0.98484030  0.90009564  0.99765781    -0.80100
O1098       O  0.49429020  0.96439195  0.99129812    -0.67700
Ni1099     Ni  0.49575399  0.98878853  0.13604877     1.34900
C1100       C  0.49761717  0.49182626  0.00480124     0.83400
O1101       O  0.04402949  0.95010634  0.08377040    -0.80600
O1102       O  0.02761562  0.95635171  0.13950604    -0.90900
C1103       C  0.00659802  0.89109835  0.01921019     0.83000
O1104       O  0.46331758  0.95883717  0.13991527    -0.69100
O1105       O  0.42776694  0.97287287  0.98785084    -0.88400
C1106       C  0.46464929  0.93174908  0.12590247     0.83900
C1107       C  0.04691774  0.94535660  0.11671450     1.05400
H1108       H  0.44777562  0.93035648  0.05764307     0.37200
O1109       O  0.46110598  0.94564800  0.04581497    -1.11000
O1110       O  0.47491250  0.50564878  0.02235846    -0.67700
Ni1111     Ni  0.45189643  0.98719181  0.06340478     1.26300
O1112       O  0.48617855  0.92344433  0.10394252    -0.67900
O1113       O  0.41045835  0.98647442  0.04145091    -0.80200
C1114       C  0.44508907  0.53439700  0.11872252     0.83200
O1115       O  0.44254696  0.52777794  0.08514260    -0.67400
Ni1116     Ni  0.45790714  0.93812775  0.99536056     1.27400
Ni1117     Ni  0.50331660  0.94723674  0.06442386     1.26100
H1118       H  0.50611282  0.00304271  0.07548593     0.37800
O1119       O  0.40921711  0.57590349  0.11455540    -0.82200
O1120       O  0.29597860  0.62710545  0.20869326    -0.66900
O1121       O  0.37497122  0.60409308  0.16928857    -1.13500
C1122       C  0.36846678  0.51638104  0.24522490     1.04700
O1123       O  0.28826914  0.59627731  0.25627269    -0.80100
O1124       O  0.35253948  0.60575098  0.26276653    -0.67700
Ni1125     Ni  0.37725225  0.60736091  0.11809850     1.34900
C1126       C  0.37998023  0.60909954  0.24928565     0.83400
O1127       O  0.33840807  0.65557868  0.17032337    -0.80600
O1128       O  0.34483114  0.63922255  0.11458656    -0.90900
C1129       C  0.27930126  0.61805604  0.23473271     0.83000
O1130       O  0.34731096  0.57492801  0.11410609    -0.69100
O1131       O  0.36105248  0.53922450  0.26615303    -0.88400
C1132       C  0.32020025  0.57622880  0.12807016     0.83900
C1133       C  0.33377810  0.65850798  0.13735707     1.05400
H1134       H  0.31863345  0.55929078  0.19629642     0.37200
O1135       O  0.33390676  0.57260777  0.20817370    -1.11000
O1136       O  0.39384780  0.58638432  0.23179206    -0.67700
Ni1137     Ni  0.37548439  0.56341381  0.19066748     1.26300
O1138       O  0.31183563  0.59774629  0.15001340    -0.67900
O1139       O  0.37472059  0.52195015  0.21256223    -0.80200
C1140       C  0.42280948  0.55666503  0.13546692     0.83200
O1141       O  0.41611883  0.55407739  0.16902382    -0.67400
Ni1142     Ni  0.32630492  0.56935570  0.25861303     1.27400
Ni1143     Ni  0.33552444  0.61483999  0.18962387     1.26100
H1144       H  0.39136399  0.61764798  0.17870899     0.37800
O1145       O  0.03841614  0.90283084  0.25625438    -0.82200
O1146       O  0.16611990  0.94522224  0.16879087    -0.66900
O1147       O  0.08397355  0.92657177  0.20809931    -1.13500
C1148       C  0.08381057  0.84076248  0.13722549     1.04700
O1149       O  0.15913656  0.92348046  0.11429475    -0.80100
O1150       O  0.09722155  0.92437062  0.11405045    -0.67700
Ni1151     Ni  0.07643418  0.92977569  0.25855098     1.34900
C1152       C  0.07013935  0.92303591  0.12808211     0.83400
O1153       O  0.12474532  0.97725542  0.21245993    -0.80600
O1154       O  0.11116657  0.95992425  0.26605199    -0.90900
C1155       C  0.17275967  0.94269835  0.13521089     0.83000
O1156       O  0.10269885  0.89339639  0.26259291    -0.69100
O1157       O  0.09481237  0.86007111  0.11444457    -0.88400
C1158       C  0.13012596  0.89006839  0.24906880     0.83900
C1159       C  0.11849792  0.98279720  0.24512905     1.05400
H1160       H  0.14144065  0.88161694  0.17845181     0.37200
O1161       O  0.12501568  0.89516633  0.16909201    -1.11000
O1162       O  0.06182374  0.90146261  0.14997887    -0.67700
Ni1163     Ni  0.08561117  0.88435769  0.18951388     1.26300
O1164       O  0.14396591  0.91279983  0.23157101    -0.67900
O1165       O  0.08852855  0.84364618  0.17017636    -0.80200
C1166       C  0.02944696  0.88104512  0.23472677     0.83200
O1167       O  0.04610747  0.87201765  0.20866115    -0.67400
Ni1168     Ni  0.12720746  0.89196787  0.11789334     1.27400
Ni1169     Ni  0.12552258  0.93581791  0.19051718     1.26100
H1170       H  0.06866882  0.93988486  0.19626953     0.37800
O1171       O  0.23479988  0.59954370  0.99767143    -0.82200
O1172       O  0.19247284  0.97170447  0.08491736    -0.66900
O1173       O  0.21110063  0.55391898  0.04577508    -1.13500
C1174       C  0.29698932  0.55394450  0.11659158     1.04700
O1175       O  0.21429472  0.97856836  0.13939084    -0.80100
O1176       O  0.21339836  0.54047744  0.13981178    -0.67700
Ni1177     Ni  0.20785526  0.56153227  0.99533460     1.34900
C1178       C  0.21470490  0.56757735  0.12582273     0.83400
O1179       O  0.16040343  0.51315911  0.04137531    -0.80600
O1180       O  0.17770991  0.52680455  0.98779503    -0.90900
C1181       C  0.19504205  0.96499618  0.11847521     0.83000
O1182       O  0.24424308  0.53529312  0.99120781    -0.69100
O1183       O  0.27769885  0.54288189  0.13935305    -0.88400
C1184       C  0.24758815  0.00786341  0.00470946     0.83900
C1185       C  0.15484626  0.51943889  0.00871653     1.05400
H1186       H  0.25608902  0.49640611  0.07523797     0.37200
O1187       O  0.24254734  0.51281086  0.08465548    -1.11000
O1188       O  0.23626582  0.57594501  0.10393663    -0.67700
Ni1189     Ni  0.25333500  0.55225839  0.06431793     1.26300
O1190       O  0.22484844  0.99398594  0.02215640    -0.67900
O1191       O  0.29407071  0.54933289  0.08362069    -0.80200
C1192       C  0.25659627  0.60848938  0.01919813     0.83200
O1193       O  0.26563611  0.59180418  0.04524131    -0.67400
Ni1194     Ni  0.24579997  0.51050196  0.13584363     1.27400
Ni1195     Ni  0.20186570  0.51234284  0.06327710     1.26100
H1196       H  0.19779687  0.56920483  0.05764948     0.37800
O1197       O  0.11703542  0.67347709  0.11426311    -0.82200
O1198       O  0.23004513  0.62201843  0.20864928    -0.66900
O1199       O  0.15114698  0.64516820  0.16906609    -1.13500
C1200       C  0.15764630  0.73279502  0.24511745     1.04700
O1201       O  0.23773087  0.65283233  0.25624252    -0.80100
O1202       O  0.17344724  0.64339406  0.26257171    -0.67700
Ni1203     Ni  0.14896601  0.64196654  0.11786652     1.34900
C1204       C  0.14602097  0.64006653  0.24904594     0.83400
O1205       O  0.18763181  0.59364923  0.17015784    -0.80600
O1206       O  0.18136707  0.61007255  0.11442394    -0.90900
C1207       C  0.24670264  0.63104692  0.23471564     0.83000
O1208       O  0.17894781  0.67437127  0.11402838    -0.69100
O1209       O  0.16497486  0.70991934  0.26603738    -0.88400
C1210       C  0.20602714  0.67303839  0.12806580     0.83900
C1211       C  0.19236412  0.59076574  0.13720996     1.05400
H1212       H  0.20748598  0.68988702  0.19625779     0.37200
O1213       O  0.19217992  0.67657323  0.20808440    -1.11000
O1214       O  0.13218354  0.66279628  0.23154259    -0.67700
Ni1215     Ni  0.15063449  0.68581872  0.19049548     1.26300
O1216       O  0.21434026  0.65146725  0.14996666    -0.67900
O1217       O  0.15140454  0.72725621  0.21244554    -0.80200
C1218       C  0.10340985  0.69269510  0.13517799     0.83200
O1219       O  0.11004305  0.69521974  0.16875932    -0.67400
Ni1220     Ni  0.19971076  0.67977427  0.25853723     1.27400
Ni1221     Ni  0.19054608  0.63435986  0.18949598     1.26100
H1222       H  0.13472100  0.63161812  0.17842208     0.37800
O1223       O  0.06187726  0.72856219  0.13935853    -0.82200
O1224       O  0.01055479  0.84181880  0.04524196    -0.66900
O1225       O  0.03363582  0.76281868  0.08463639    -1.13500
C1226       C  0.12133649  0.76944589  0.00869351     1.04700
O1227       O  0.04138382  0.84955772  0.99766500    -0.80100
O1228       O  0.03193931  0.78530991  0.99119493    -0.67700
Ni1229     Ni  0.03037829  0.76049965  0.13582315     1.34900
C1230       C  0.02859522  0.75787926  0.00469500     0.83400
O1231       O  0.48211415  0.79934643  0.08361226    -0.80600
O1232       O  0.99848274  0.79288179  0.13934318    -0.90900
C1233       C  0.01959114  0.85850333  0.01919703     0.83000
O1234       O  0.06278227  0.79047057  0.13980435    -0.69100
O1235       O  0.09847348  0.77681888  0.98777469    -0.88400
C1236       C  0.06147659  0.81757412  0.12582436     0.83900
C1237       C  0.47919228  0.80394791  0.11658503     1.05400
H1238       H  0.07838943  0.81921386  0.05764029     0.37200
O1239       O  0.06508539  0.80392996  0.04576350    -1.11000
O1240       O  0.05133828  0.74400043  0.02213350    -0.67700
Ni1241     Ni  0.07431865  0.76235143  0.06325759     1.26300
O1242       O  0.03992112  0.82594648  0.10393392    -0.67900
O1243       O  0.11578049  0.76316739  0.04135316    -0.80200
C1244       C  0.08113208  0.71499419  0.11844211     0.83200
O1245       O  0.08370874  0.72170971  0.08488718    -0.67400
Ni1246     Ni  0.06832841  0.81154678  0.99532232     1.27400
Ni1247     Ni  0.02285118  0.80226974  0.06430902     1.26100
H1248       H  0.02009348  0.74641670  0.07521464     0.37800
O1249       O  0.23788017  0.90346961  0.74768455    -0.82200
O1250       O  0.11004529  0.94568505  0.83492901    -0.66900
O1251       O  0.19225162  0.92714753  0.79578248    -1.13500
C1252       C  0.19237006  0.84124297  0.86658654     1.04700
O1253       O  0.11694679  0.92385389  0.88939683    -0.80100
O1254       O  0.17885679  0.92482319  0.88984899    -0.67700
Ni1255     Ni  0.19985258  0.93040252  0.74534463     1.34900
C1256       C  0.20596526  0.92351514  0.87587889     0.83400
O1257       O  0.15144706  0.97781897  0.79139514    -0.80600
O1258       O  0.16511459  0.96054657  0.73780371    -0.90900
C1259       C  0.10335281  0.94309002  0.86848370     0.83000
O1260       O  0.17360649  0.89401474  0.74118788    -0.69100
O1261       O  0.18132628  0.86052757  0.88936411    -0.88400
C1262       C  0.14616470  0.89067189  0.75466855     0.83900
C1263       C  0.15770184  0.98339062  0.75873194     1.05400
H1264       H  0.13478509  0.88211873  0.82524641     0.37200
O1265       O  0.15118246  0.89566868  0.83466584    -1.11000
O1266       O  0.21432005  0.90199387  0.85393623    -0.67700
Ni1267     Ni  0.19062214  0.88491200  0.81432680     1.26300
O1268       O  0.13230442  0.91338871  0.77216479    -0.67900
O1269       O  0.18772330  0.84417374  0.83362379    -0.80200
C1270       C  0.24684142  0.88168169  0.76921641     0.83200
O1271       O  0.23016239  0.87263203  0.79525394    -0.67400
Ni1272     Ni  0.14890842  0.89239495  0.88585612     1.27400
Ni1273     Ni  0.15067680  0.93635001  0.81328855     1.26100
H1274       H  0.20752816  0.94045972  0.80766136     0.37800
O1275       O  0.04134557  0.59966129  0.00626776    -0.82200
O1276       O  0.08361879  0.97197250  0.91880227    -0.66900
O1277       O  0.06507342  0.55410411  0.95811605    -1.13500
C1278       C  0.47925653  0.55439617  0.88722647     1.04700
O1279       O  0.06187339  0.97899848  0.86430963    -0.80100
O1280       O  0.06286160  0.54090437  0.86402996    -0.67700
Ni1281     Ni  0.06828427  0.56163105  0.00856641     1.34900
C1282       C  0.06153312  0.56799400  0.87803823     0.83400
O1283       O  0.11572261  0.51327647  0.96246649    -0.80600
O1284       O  0.09843394  0.52688979  0.01607189    -0.90900
C1285       C  0.08107273  0.96535205  0.88522474     0.83000
O1286       O  0.03190343  0.53536441  0.01264660    -0.69100
O1287       O  0.99856336  0.54340658  0.86443515    -0.88400
C1288       C  0.02857379  0.00792903  0.99914581     0.83900
C1289       C  0.12128253  0.51949325  0.99513969     1.05400
H1290       H  0.02006050  0.49670754  0.92845998     0.37200
O1291       O  0.03362659  0.51311758  0.91909741    -1.11000
O1292       O  0.04000084  0.57630405  0.89999304    -0.67700
Ni1293     Ni  0.02285938  0.55251412  0.93951421     1.26300
O1294       O  0.05127593  0.99410612  0.98158616    -0.67900
O1295       O  0.48214433  0.54964511  0.92017052    -0.80200
C1296       C  0.01958060  0.60865354  0.98472067     0.83200
O1297       O  0.01055296  0.59200911  0.95865136    -0.67400
Ni1298     Ni  0.03041604  0.51096295  0.86789451     1.27400
Ni1299     Ni  0.07427855  0.51255978  0.94052913     1.26100
H1300       H  0.07840400  0.56939342  0.94628445     0.37800
O1301       O  0.28838486  0.84687058  0.74771465    -0.82200
O1302       O  0.41612630  0.80451606  0.83511866    -0.66900
O1303       O  0.33396905  0.82315408  0.79583775    -1.13500
C1304       C  0.33381787  0.90897412  0.86669102     1.04700
O1305       O  0.40913467  0.82624764  0.88962025    -0.80100
O1306       O  0.34722054  0.82537064  0.88987597    -0.67700
Ni1307     Ni  0.32640804  0.81993480  0.74539333     1.34900
C1308       C  0.32013947  0.82670906  0.87584258     0.83400
O1309       O  0.37475239  0.77247363  0.79145689    -0.80600
O1310       O  0.36114745  0.78979605  0.73786877    -0.90900
C1311       C  0.42276150  0.80703447  0.86870067     0.83000
O1312       O  0.35266090  0.85631799  0.74132342    -0.69100
O1313       O  0.34482092  0.88967006  0.88947660    -0.88400
C1314       C  0.38009126  0.85965600  0.75483496     0.83900
C1315       C  0.36850961  0.76692957  0.75878679     1.05400
H1316       H  0.39144308  0.86811002  0.82546548     0.37200
O1317       O  0.37501753  0.85456317  0.83482879    -1.11000
O1318       O  0.31182655  0.84828573  0.85394988    -0.67700
Ni1319     Ni  0.33561575  0.86537577  0.81441011     1.26300
O1320       O  0.39394392  0.83693387  0.77233748    -0.67900
O1321       O  0.33854424  0.90608851  0.83374158    -0.80200
C1322       C  0.27943607  0.86867991  0.76922314     0.83200
O1323       O  0.29611535  0.87772707  0.79526356    -0.67400
Ni1324     Ni  0.37721189  0.85776687  0.88602695     1.27400
Ni1325     Ni  0.37552285  0.81391191  0.81340280     1.26100
H1326       H  0.31866942  0.80984367  0.80767927     0.37800
O1327       O  0.98477549  0.65018727  0.00624541    -0.82200
O1328       O  0.44246081  0.77802349  0.91899376    -0.66900
O1329       O  0.46108368  0.69581180  0.95814112    -1.13500
C1330       C  0.04698687  0.69578810  0.88734190     1.04700
O1331       O  0.46429824  0.77116482  0.86452584    -0.80100
O1332       O  0.46339342  0.70925728  0.86410671    -0.67700
Ni1333     Ni  0.45783446  0.68820142  0.00858144     1.34900
C1334       C  0.46469709  0.68215675  0.87809346     0.83400
O1335       O  0.41038622  0.73657272  0.96253568    -0.80600
O1336       O  0.42769377  0.72293369  0.01611780    -0.90900
C1337       C  0.44503968  0.78473451  0.88543750     0.83000
O1338       O  0.49422427  0.71443744  0.01270435    -0.69100
O1339       O  0.02769531  0.70684250  0.86457649    -0.88400
C1340       C  0.49756859  0.74186696  0.99920074     0.83900
C1341       C  0.40483063  0.73030063  0.99519707     1.05400
H1342       H  0.50607377  0.75332618  0.92868293     0.37200
O1343       O  0.49253462  0.73692002  0.91926466    -1.11000
O1344       O  0.48625504  0.67378701  0.89998389    -0.67700
Ni1345     Ni  0.50332131  0.69747495  0.93960604     1.26300
O1346       O  0.47482591  0.75574416  0.98175949    -0.67900
O1347       O  0.04406151  0.70040246  0.92031125    -0.80200
C1348       C  0.00658227  0.64124712  0.98472860     0.83200
O1349       O  0.01562550  0.65793339  0.95868804    -0.67400
Ni1350     Ni  0.49579831  0.73922680  0.86807860     1.27400
Ni1351     Ni  0.45184989  0.73738681  0.94063584     1.26100
H1352       H  0.44778241  0.68052465  0.94626581     0.37800
O1353       O  0.36703212  0.57625153  0.88961787    -0.82200
O1354       O  0.48005550  0.62771613  0.79526269    -0.66900
O1355       O  0.40115164  0.60456609  0.83482793    -1.13500
C1356       C  0.40764610  0.51693305  0.75878361     1.04700
O1357       O  0.48777231  0.59687168  0.74770004    -0.80100
O1358       O  0.42349659  0.60631990  0.74131897    -0.67700
Ni1359     Ni  0.39895534  0.60776890  0.88602640     1.34900
C1360       C  0.39606669  0.60965672  0.75483239     0.83400
O1361       O  0.43763571  0.65608608  0.83374601    -0.80600
O1362       O  0.43134733  0.63966930  0.88948016    -0.90900
C1363       C  0.49672776  0.61867330  0.76921438     0.83000
O1364       O  0.42894678  0.57537214  0.88988276    -0.69100
O1365       O  0.41500926  0.53979820  0.73786421    -0.88400
C1366       C  0.45603033  0.57670999  0.87585452     0.83900
C1367       C  0.44235658  0.65897135  0.86669676     1.05400
H1368       H  0.45749333  0.55984105  0.80767251     0.37200
O1369       O  0.44219448  0.57315348  0.79583242    -1.11000
O1370       O  0.38221682  0.58693515  0.77233718    -0.67700
Ni1371     Ni  0.40064134  0.56391512  0.81340026     1.26300
O1372       O  0.46434265  0.59827744  0.85394937    -0.67900
O1373       O  0.40140748  0.52247765  0.79145451    -0.80200
C1374       C  0.35340567  0.55703921  0.86869811     0.83200
O1375       O  0.36003881  0.55452286  0.83511593    -0.67400
Ni1376     Ni  0.44974953  0.56993628  0.74538523     1.27400
Ni1377     Ni  0.44055488  0.61537321  0.81441050     1.35700
H1378       H  0.38472858  0.61811573  0.82546400     0.37800
O1379       O  0.31187507  0.52116611  0.86452160    -0.82200
O1380       O  0.26054997  0.90793167  0.95867594    -0.66900
O1381       O  0.28364372  0.98691982  0.91925840    -1.13500
C1382       C  0.37135029  0.98029569  0.99518626     1.04700
O1383       O  0.29141938  0.90016705  0.00621220    -0.80100
O1384       O  0.28196053  0.96441631  0.01269398    -0.67700
Ni1385     Ni  0.28037399  0.98923012  0.86807309     1.34900
C1386       C  0.27861416  0.49184904  0.99920028     0.83400
O1387       O  0.23211493  0.95041116  0.92031325    -0.80600
O1388       O  0.24847459  0.95684818  0.86457538    -0.90900
C1389       C  0.26960371  0.89123517  0.98470318     0.83000
O1390       O  0.31277765  0.95925910  0.86409389    -0.69100
O1391       O  0.34848762  0.97292049  0.01610392    -0.88400
C1392       C  0.31147436  0.93215890  0.87808151     0.83900
C1393       C  0.22918542  0.94579541  0.88734490     1.05400
H1394       H  0.32839838  0.93052103  0.94624024     0.37200
O1395       O  0.31509852  0.94580582  0.95812181    -1.11000
O1396       O  0.30135342  0.50573059  0.98175661    -0.67700
Ni1397     Ni  0.32432942  0.98738386  0.94062597     1.26300
O1398       O  0.28991418  0.92378910  0.89996877    -0.67900
O1399       O  0.36579501  0.98656960  0.96252482    -0.80200
C1400       C  0.33113179  0.53473648  0.88543423     0.83200
O1401       O  0.33371350  0.52802313  0.91898978    -0.67400
Ni1402     Ni  0.31835370  0.93818485  0.00855813     1.27400
Ni1403     Ni  0.27285701  0.94747476  0.93959691     1.26100
H1404       H  0.27010587  0.00332597  0.92868018     0.37800
O1405       O  0.15922953  0.67384895  0.88936434    -0.82200
O1406       O  0.04599774  0.62262780  0.79524600    -0.66900
O1407       O  0.12498383  0.64566046  0.83464241    -1.13500
C1408       C  0.11845198  0.73338841  0.75871748     1.04700
O1409       O  0.03828628  0.65345236  0.74766330    -0.80100
O1410       O  0.10255830  0.64401093  0.74116480    -0.67700
Ni1411     Ni  0.12726762  0.64239036  0.88583242     1.34900
C1412       C  0.12999842  0.64067029  0.75464875     0.83400
O1413       O  0.08843499  0.59416556  0.83361702    -0.80600
O1414       O  0.09485163  0.61052459  0.88935287    -0.90900
C1415       C  0.02932277  0.63167090  0.76920224     0.83000
O1416       O  0.09731820  0.67481826  0.88983057    -0.69100
O1417       O  0.11103789  0.71054741  0.73778521    -0.88400
C1418       C  0.07020666  0.67350944  0.87586825     0.83900
C1419       C  0.08379991  0.59123829  0.86658325     1.05400
H1420       H  0.06863264  0.69044997  0.80764351     0.37200
O1421       O  0.08390945  0.67713790  0.79576407    -1.11000
O1422       O  0.14385674  0.66339002  0.77213966    -0.67700
Ni1423     Ni  0.12548412  0.68634348  0.81326676     1.26300
O1424       O  0.06184853  0.65198980  0.85392541    -0.67900
O1425       O  0.12470707  0.72781296  0.79137905    -0.80200
C1426       C  0.17281699  0.69308758  0.86844906     0.83200
O1427       O  0.16611751  0.69568287  0.83489708    -0.67400
Ni1428     Ni  0.07630699  0.68039401  0.74532542     1.27400
Ni1429     Ni  0.08553994  0.63490362  0.81431286     1.26100
H1430       H  0.14137997  0.63211099  0.82521907     0.37800
O1431       O  0.21429051  0.72900376  0.86426668    -0.82200
O1432       O  0.26563584  0.84199316  0.95862724    -0.66900
O1433       O  0.24254678  0.76311023  0.91905953    -1.13500
C1434       C  0.15489893  0.76948983  0.99511220     1.04700
O1435       O  0.23483030  0.84965524  0.00623107    -0.80100
O1436       O  0.24427773  0.78535855  0.01260957    -0.67700
Ni1437     Ni  0.24575267  0.76096539  0.86785570     1.34900
C1438       C  0.24760785  0.75792202  0.99911109     0.83400
O1439       O  0.29403174  0.79962175  0.92013962    -0.80600
O1440       O  0.27760981  0.79340669  0.86440384    -0.90900
C1441       C  0.25660298  0.85864216  0.98469119     0.83000
O1442       O  0.21330921  0.79091097  0.86400601    -0.69100
O1443       O  0.17775081  0.77688091  0.01604078    -0.88400
C1444       C  0.21464164  0.81799680  0.87802308     0.83900
C1445       C  0.29691747  0.80438638  0.88719858     1.05400
H1446       H  0.19777515  0.81938760  0.94625451     0.37200
O1447       O  0.21110506  0.80409705  0.95808449    -1.11000
O1448       O  0.22490809  0.74409845  0.98154771    -0.67700
Ni1449     Ni  0.20189818  0.76255344  0.94049638     1.26300
O1450       O  0.23618249  0.82630092  0.89996871    -0.67900
O1451       O  0.16045548  0.76327063  0.96243872    -0.80200
C1452       C  0.19509728  0.71535173  0.88518548     0.83200
O1453       O  0.19255721  0.72196763  0.91876502    -0.67400
Ni1454     Ni  0.20789545  0.81162395  0.00853338     1.27400
Ni1455     Ni  0.25331943  0.80250153  0.93948428     1.26100
H1456       H  0.25611205  0.74669672  0.92841644     0.37800
O1457       O  0.06186793  0.77075913  0.36426068    -0.82200
O1458       O  0.01053207  0.65776779  0.45861785    -0.66900
O1459       O  0.03361844  0.73664930  0.41905360    -1.13500
C1460       C  0.12126984  0.73027779  0.49510870     1.04700
O1461       O  0.04132849  0.65011276  0.50623036    -0.80100
O1462       O  0.03189070  0.71440930  0.51260511    -0.67700
Ni1463     Ni  0.03039969  0.73880294  0.36785060     1.34900
C1464       C  0.02856315  0.74184441  0.49910308     0.83400
O1465       O  0.48213046  0.70013711  0.42013835    -0.80600
O1466       O  0.99853786  0.70636483  0.36439773    -0.90900
C1467       C  0.01956025  0.64112344  0.48468672     0.83000
O1468       O  0.06283487  0.70885193  0.36397760    -0.69100
O1469       O  0.09841986  0.72287900  0.51603725    -0.88400
C1470       C  0.06150474  0.68176541  0.37799294     0.83900
C1471       C  0.47923915  0.69537439  0.38719737     1.05400
H1472       H  0.07838689  0.68036922  0.44624419     0.37200
O1473       O  0.06506012  0.69566178  0.45807627    -1.11000
O1474       O  0.05126450  0.75566387  0.48153863    -0.67700
Ni1475     Ni  0.07427011  0.73720346  0.44048747     1.26300
O1476       O  0.03997635  0.67346230  0.39995508    -0.67900
O1477       O  0.11571328  0.73648628  0.46243210    -0.80200
C1478       C  0.08106964  0.78440428  0.38517525     0.83200
O1479       O  0.08361470  0.77778668  0.41875372    -0.67400
Ni1480     Ni  0.06826937  0.68813945  0.50852792     1.27400
Ni1481     Ni  0.02284530  0.69725861  0.43947658     1.26100
H1482       H  0.02005482  0.75306203  0.42841566     0.37800
O1483       O  0.11693633  0.82590811  0.38934714    -0.82200
O1484       O  0.23017599  0.87711034  0.29523262    -0.66900
O1485       O  0.15118876  0.85408239  0.33462385    -1.13500
C1486       C  0.15770958  0.76635666  0.25869926     1.04700
O1487       O  0.23789749  0.84627812  0.24765876    -0.80100
O1488       O  0.17362612  0.85573151  0.24115421    -0.67700
Ni1489     Ni  0.14889919  0.85736511  0.38581170     1.34900
C1490       C  0.14618442  0.85907406  0.25463490     0.83400
O1491       O  0.18773336  0.90557717  0.33358642    -0.80600
O1492       O  0.18131709  0.88923062  0.38932613    -0.90900
C1493       C  0.24685598  0.86806412  0.26919462     0.83000
O1494       O  0.17884416  0.82493660  0.38982268    -0.69100
O1495       O  0.16513582  0.78919561  0.23776948    -0.88400
C1496       C  0.20595647  0.82624052  0.37586264     0.83900
C1497       C  0.19236724  0.90851306  0.36655112     1.05400
H1498       H  0.20754155  0.80928839  0.30763625     0.37200
O1499       O  0.19226590  0.82259917  0.29575364    -1.11000
O1500       O  0.13232288  0.83635391  0.27212294    -0.67700
Ni1501     Ni  0.15068885  0.81339837  0.31325262     1.26300
O1502       O  0.21431891  0.84775514  0.35391516    -0.67900
O1503       O  0.15146137  0.77193034  0.29136307    -0.80200
C1504       C  0.10335195  0.80666438  0.36843510     0.83200
O1505       O  0.11005425  0.80406240  0.33488388    -0.67400
Ni1506     Ni  0.19987180  0.81934296  0.24531561     1.27400
Ni1507     Ni  0.19063287  0.86483561  0.31429534     1.26100
H1508       H  0.13479376  0.86763124  0.32519744     0.37800
O1509       O  0.46428245  0.97858351  0.36454177    -0.82200
O1510       O  0.01560410  0.59184066  0.45866339    -0.66900
O1511       O  0.49251964  0.51284193  0.41926857    -1.13500
C1512       C  0.40480592  0.51948180  0.49517875     1.04700
O1513       O  0.98475183  0.59959827  0.50621751    -0.80100
O1514       O  0.49419475  0.53535311  0.51270870    -0.67700
Ni1515     Ni  0.49578421  0.51051847  0.36808281     1.34900
C1516       C  0.49754307  0.00792004  0.49921459     0.83400
O1517       O  0.04404413  0.54935981  0.42030370    -0.80600
O1518       O  0.02768280  0.54289662  0.36456953    -0.90900
C1519       C  0.00655959  0.60853233  0.48469924     0.83000
O1520       O  0.46338188  0.54049184  0.36409557    -0.69100
O1521       O  0.42766242  0.52686049  0.51610367    -0.88400
C1522       C  0.46468379  0.56759402  0.37807986     0.83900
C1523       C  0.04696978  0.55396267  0.38733204     1.05400
H1524       H  0.44776389  0.56924591  0.44624170     0.37200
O1525       O  0.46106436  0.55396266  0.45812448    -1.11000
O1526       O  0.47480448  0.99403870  0.48177056    -0.67700
Ni1527     Ni  0.45183373  0.51238250  0.44063443     1.26300
O1528       O  0.48624461  0.57596828  0.39996293    -0.67900
O1529       O  0.41036810  0.51320358  0.46252150    -0.80200
C1530       C  0.44502474  0.96501969  0.38545814     0.83200
O1531       O  0.44244772  0.97173805  0.41901192    -0.67400
Ni1532     Ni  0.45780651  0.56158846  0.50856124     1.27400
Ni1533     Ni  0.50330367  0.55229315  0.43959565     1.26100
H1534       H  0.50605775  0.49643874  0.42869552     0.37800
O1535       O  0.40911552  0.92350994  0.38964509    -0.82200
O1536       O  0.29611740  0.87202906  0.29526110    -0.66900
O1537       O  0.37500828  0.89519360  0.33484609    -1.13500
C1538       C  0.36850551  0.98282176  0.25880531     1.04700
O1539       O  0.28840283  0.90287122  0.24769747    -0.80100
O1540       O  0.35268050  0.89342997  0.24133796    -0.67700
Ni1541     Ni  0.37718985  0.89199434  0.38604455     1.34900
C1542       C  0.38010785  0.89009585  0.25485828     0.83400
O1543       O  0.33853623  0.84366879  0.33375045    -0.80600
O1544       O  0.34479597  0.86009398  0.38948489    -0.90900
C1545       C  0.27944828  0.88106731  0.26920903     0.83000
O1546       O  0.34720036  0.92439495  0.38988140    -0.69100
O1547       O  0.36116020  0.95995238  0.23788406    -0.88400
C1548       C  0.32012158  0.92305723  0.37584210     0.83900
C1549       C  0.33380168  0.84078583  0.36669808     1.05400
H1550       H  0.31866326  0.93991037  0.30767375     0.37200
O1551       O  0.33396717  0.92659885  0.29584023    -1.11000
O1552       O  0.39395248  0.91282115  0.27236282    -0.67700
Ni1553     Ni  0.37551539  0.93584294  0.31341957     1.26300
O1554       O  0.31181262  0.90147828  0.35394919    -0.67900
O1555       O  0.37474459  0.97727999  0.29147606    -0.80200
C1556       C  0.42274462  0.94272151  0.36872593     0.83200
O1557       O  0.41611174  0.94524067  0.33514425    -0.67400
Ni1558     Ni  0.32642248  0.92981129  0.24539225     1.27400
Ni1559     Ni  0.33561137  0.88438069  0.31441742     1.26100
H1560       H  0.39143638  0.88164638  0.32548879     0.37800
O1561       O  0.23480492  0.90012106  0.50622876    -0.82200
O1562       O  0.19252135  0.52779502  0.41874970    -0.66900
O1563       O  0.21107615  0.94567082  0.45807623    -1.13500
C1564       C  0.29689739  0.94538248  0.38719398     1.04700
O1565       O  0.21426278  0.52075922  0.36425441    -0.80100
O1566       O  0.21329640  0.95885040  0.36398013    -0.67700
Ni1567     Ni  0.20786889  0.93815051  0.50852825     1.34900
C1568       C  0.21462895  0.93176492  0.37799831     0.83400
O1569       O  0.16042443  0.98649697  0.46243599    -0.80600
O1570       O  0.17772530  0.97289473  0.51603865    -0.90900
C1571       C  0.19506517  0.53440959  0.38517003     0.83000
O1572       O  0.24425044  0.96441552  0.51259864    -0.69100
O1573       O  0.27759535  0.95636645  0.36439570    -0.88400
C1574       C  0.24757890  0.49184950  0.49909465     0.83900
C1575       C  0.15487205  0.98028878  0.49511371     1.05400
H1576       H  0.25607932  0.00306988  0.42840575     0.37200
O1577       O  0.24251561  0.98665568  0.41904791    -1.11000
O1578       O  0.23616046  0.92346532  0.39995807    -0.67700
Ni1579     Ni  0.25329102  0.94726757  0.43947541     1.26300
O1580       O  0.22487674  0.50567148  0.48153360    -0.67900
O1581       O  0.29400572  0.95014698  0.42013462    -0.80200
C1582       C  0.25657697  0.89113379  0.48468859     0.83200
O1583       O  0.26560787  0.90777944  0.45862181    -0.67400
Ni1584     Ni  0.24573138  0.98880303  0.36784519     1.27400
Ni1585     Ni  0.20186595  0.98721206  0.44048592     1.26100
H1586       H  0.19774911  0.93037794  0.44624576     0.37800
O1587       O  0.03824481  0.59627937  0.24764591    -0.82200
O1588       O  0.16608669  0.55407226  0.33487736    -0.66900
O1589       O  0.08387592  0.57260419  0.29574417    -1.13500
C1590       C  0.08376652  0.65851630  0.36654163     1.04700
O1591       O  0.15920040  0.57591545  0.38934046    -0.80100
O1592       O  0.09729439  0.57494132  0.38981070    -0.67700
Ni1593     Ni  0.07627195  0.56934429  0.24530666     1.34900
C1594       C  0.07018250  0.57624312  0.37585025     0.83400
O1595       O  0.12468198  0.52193745  0.29136421    -0.80600
O1596       O  0.11100865  0.53919587  0.23776749    -0.90900
C1597       C  0.17278583  0.55667193  0.36842914     0.83000
O1598       O  0.10251799  0.60573204  0.24113968    -0.69100
O1599       O  0.09481837  0.63923434  0.38931548    -0.88400
C1600       C  0.12995988  0.60907491  0.25461920     0.83900
C1601       C  0.11843385  0.51635996  0.25870220     1.05400
H1602       H  0.14134380  0.61764035  0.32518610     0.37200
O1603       O  0.12494973  0.60409089  0.33461345    -1.11000
O1604       O  0.06181842  0.59775779  0.35390375    -0.67700
Ni1605     Ni  0.08550434  0.61484036  0.31428469     1.26300
O1606       O  0.14381993  0.58635727  0.27211294    -0.67900
O1607       O  0.08839845  0.65558172  0.33357624    -0.80200
C1608       C  0.02928248  0.61806321  0.26918328     0.83200
O1609       O  0.04596053  0.62711062  0.29522166    -0.67400
Ni1610     Ni  0.12723726  0.60737143  0.38580198     1.27400
Ni1611     Ni  0.12545256  0.56340637  0.31324573     1.26100
H1612       H  0.06860082  0.55929236  0.30762638     0.37800
O1613       O  0.29138795  0.84961206  0.50622171    -0.82200
O1614       O  0.33370741  0.72175087  0.41902329    -0.66900
O1615       O  0.31508035  0.80397641  0.45813132    -1.13500
C1616       C  0.22917193  0.80396292  0.38734521     1.04700
O1617       O  0.31186603  0.72858970  0.36455566    -0.80100
O1618       O  0.31276119  0.79049880  0.36410278    -0.67700
Ni1619     Ni  0.31833451  0.81160338  0.50856831     1.34900
C1620       C  0.31145656  0.81760186  0.37808488     0.83400
O1621       O  0.36578058  0.76322083  0.46253455    -0.80600
O1622       O  0.34848178  0.77687757  0.51611606    -0.90900
C1623       C  0.33112562  0.71502752  0.38547098     0.83000
O1624       O  0.28194679  0.78536604  0.51271191    -0.69100
O1625       O  0.24846006  0.79289813  0.36458254    -0.88400
C1626       C  0.27860334  0.75793308  0.49921704     0.83900
C1627       C  0.37133998  0.76949682  0.49519328     1.05400
H1628       H  0.27009340  0.74644645  0.42870713     0.37200
O1629       O  0.28362947  0.76285059  0.41927913    -1.11000
O1630       O  0.28989539  0.82597576  0.39996825    -0.67700
Ni1631     Ni  0.27284053  0.80230168  0.43960385     1.26300
O1632       O  0.30134733  0.74405294  0.48178048    -0.67900
O1633       O  0.23209947  0.79936257  0.42031702    -0.80200
C1634       C  0.26957965  0.85854353  0.48470318     0.83200
O1635       O  0.26053587  0.84184935  0.45866960    -0.67400
Ni1636     Ni  0.28036217  0.76052298  0.36809467     1.27400
Ni1637     Ni  0.32431611  0.76239600  0.44064386     1.26100
H1638       H  0.32837864  0.81926085  0.44624768     0.37800
O1639       O  0.48773407  0.65286934  0.24769328    -0.82200
O1640       O  0.36003083  0.69524076  0.33515429    -0.66900
O1641       O  0.44217225  0.67659457  0.29584186    -1.13500
C1642       C  0.44233635  0.59077713  0.36669509     1.04700
O1643       O  0.36702673  0.67350781  0.38965387    -0.80100
O1644       O  0.42893997  0.67438262  0.38988717    -0.67700
Ni1645     Ni  0.44971486  0.67981034  0.24539322     1.34900
C1646       C  0.45601771  0.67304729  0.37584474     0.83400
O1647       O  0.40139717  0.72727922  0.29148337    -0.80600
O1648       O  0.41497658  0.70995167  0.23788978    -0.90900
C1649       C  0.35340064  0.69272368  0.36873706     0.83000
O1650       O  0.42345734  0.64343020  0.24133894    -0.69100
O1651       O  0.43133931  0.61008234  0.38948392    -0.88400
C1652       C  0.39603131  0.64009531  0.25486241     0.83900
C1653       C  0.40763442  0.73282147  0.25881195     1.05400
H1654       H  0.38470233  0.63164375  0.32549145     0.37200
O1655       O  0.40113116  0.64518960  0.33484923    -1.11000
O1656       O  0.46432730  0.65147036  0.35394877    -0.67700
Ni1657     Ni  0.44052751  0.63437544  0.31441660     1.26300
O1658       O  0.38218648  0.66282029  0.27236844    -0.67900
O1659       O  0.43760279  0.59366248  0.33374753    -0.80200
C1660       C  0.49668903  0.63106327  0.26920172     0.83200
O1661       O  0.48002059  0.62202309  0.29525430    -0.67400
Ni1662     Ni  0.39894803  0.64198641  0.38604774     1.27400
Ni1663     Ni  0.40062533  0.68584051  0.31342512     1.26100
H1664       H  0.45747724  0.68990439  0.30767531     0.37800
O1665       O  0.54137846  0.40022733  0.49766770    -0.82200
O1666       O  0.58368783  0.02806068  0.58493385    -0.66900
O1667       O  0.56506978  0.44585268  0.54577273    -1.13500
C1668       C  0.97917602  0.44580832  0.61658449     1.04700
O1669       O  0.56186448  0.02118485  0.63940701    -0.80100
O1670       O  0.56277060  0.45927873  0.63981256    -0.67700
Ni1671     Ni  0.56831098  0.43824705  0.49533095     1.34900
C1672       C  0.56146530  0.43217976  0.62582265     0.83400
O1673       O  0.61576121  0.48662129  0.54136817    -0.80600
O1674       O  0.59844242  0.47298514  0.48779080    -0.90900
C1675       C  0.58111620  0.03476220  0.61849394     0.83000
O1676       O  0.53191611  0.46447834  0.49121987    -0.69100
O1677       O  0.49846885  0.45685948  0.63935189    -0.88400
C1678       C  0.52856931  0.99190808  0.50472177     0.83900
C1679       C  0.62131135  0.48034687  0.50870521     1.05400
H1680       H  0.52007685  0.50335624  0.57525437     0.37200
O1681       O  0.53362047  0.48695038  0.58466558    -1.11000
O1682       O  0.53990849  0.42381357  0.60392955    -0.67700
Ni1683     Ni  0.52283507  0.44750814  0.56431697     1.26300
O1684       O  0.55130871  0.00578720  0.52216793    -0.67900
O1685       O  0.98209816  0.45043048  0.58361648    -0.80200
C1686       C  0.51957733  0.39128166  0.51918848     0.83200
O1687       O  0.51053225  0.40796718  0.54522922    -0.67400
Ni1688     Ni  0.53036391  0.48924673  0.63585335     1.27400
Ni1689     Ni  0.57430042  0.48742685  0.56328222     1.26100
H1690       H  0.57837510  0.43056644  0.55764378     0.37800
O1691       O  0.73776729  0.09691452  0.75622682    -0.82200
O1692       O  0.61004122  0.05453206  0.66881022    -0.66900
O1693       O  0.69219744  0.07317789  0.70809002    -1.13500
C1694       C  0.69234984  0.15899296  0.63721381     1.04700
O1695       O  0.61701268  0.07628104  0.61431500    -0.80100
O1696       O  0.67892765  0.07539711  0.61403024    -0.67700
Ni1697     Ni  0.69974928  0.06997178  0.75854029     1.34900
C1698       C  0.70601356  0.07673206  0.62805240     0.83400
O1699       O  0.65141986  0.02249517  0.71247499    -0.80600
O1700       O  0.66501707  0.03982408  0.76606332    -0.90900
C1701       C  0.60339565  0.05705998  0.63523202     0.83000
O1702       O  0.67348734  0.10635160  0.76259506    -0.69100
O1703       O  0.68133271  0.13969223  0.61443449    -0.88400
C1704       C  0.64605717  0.10967918  0.74907965     0.83900
C1705       C  0.65766428  0.01695358  0.74514609     1.05400
H1706       H  0.63472818  0.11813700  0.67846674     0.37200
O1707       O  0.65114904  0.10458711  0.66909780    -1.11000
O1708       O  0.71433242  0.09829555  0.64995874    -0.67700
Ni1709     Ni  0.69055819  0.11539414  0.68950455     1.26300
O1710       O  0.63221319  0.08694894  0.73158511    -0.67900
O1711       O  0.68764056  0.15610651  0.67016683    -0.80200
C1712       C  0.74673344  0.11869857  0.73469572     0.83200
O1713       O  0.73006781  0.12772947  0.70863659    -0.67400
Ni1714     Ni  0.64893940  0.10779474  0.61789965     1.27400
Ni1715     Ni  0.65064418  0.06393301  0.69052446     1.26100
H1716       H  0.70749834  0.05986570  0.69625173     0.37800
O1717       O  0.71429032  0.27118736  0.63939216    -0.82200
O1718       O  0.76561484  0.15796494  0.54521085    -0.66900
O1719       O  0.74252907  0.23695049  0.58464659    -1.13500
C1720       C  0.65483258  0.23034213  0.50869514     1.04700
O1721       O  0.73478192  0.15023664  0.49763686    -0.80100
O1722       O  0.74423290  0.21449158  0.49120206    -0.67700
Ni1723     Ni  0.74578788  0.23924736  0.63583407     1.34900
C1724       C  0.74757635  0.24191932  0.50471154     0.83400
O1725       O  0.79405267  0.20042546  0.58359774    -0.80600
O1726       O  0.77768170  0.20685892  0.63933171    -0.90900
C1727       C  0.75657659  0.14128485  0.51916296     0.83000
O1728       O  0.71338026  0.20928069  0.63979669    -0.69100
O1729       O  0.67770190  0.22298692  0.48777698    -0.88400
C1730       C  0.71468389  0.18218105  0.62580783     0.83900
C1731       C  0.79697557  0.19580743  0.61656650     1.05400
H1732       H  0.69777616  0.18056530  0.55762136     0.37200
O1733       O  0.71108089  0.19585362  0.54575244    -1.11000
O1734       O  0.72483277  0.25579370  0.52215535    -0.67700
Ni1735     Ni  0.70184674  0.23742594  0.56326763     1.26300
O1736       O  0.73623832  0.17381375  0.60391107    -0.67900
O1737       O  0.66038438  0.23661709  0.54135763    -0.80200
C1738       C  0.69503361  0.28476199  0.61848313     0.83200
O1739       O  0.69245626  0.27805779  0.58492441    -0.67400
Ni1740     Ni  0.70784201  0.18825356  0.49530880     1.27400
Ni1741     Ni  0.75331451  0.19750700  0.56429793     1.26100
H1742       H  0.75607184  0.25335643  0.57523452     0.37800
O1743       O  0.65913362  0.32627882  0.61430928    -0.82200
O1744       O  0.54608926  0.37773341  0.70864894    -0.66900
O1745       O  0.62500561  0.35458869  0.66909955    -1.13500
C1746       C  0.61849290  0.26695278  0.74514168     1.04700
O1747       O  0.53839094  0.34691753  0.75623793    -0.80100
O1748       O  0.60267436  0.35635125  0.76260374    -0.67700
Ni1749     Ni  0.62720654  0.35779214  0.61790033     1.34900
C1750       C  0.63010453  0.35968085  0.74908778     0.83400
O1751       O  0.58851547  0.40610673  0.67017449    -0.80600
O1752       O  0.59481187  0.38968893  0.61444164    -0.90900
C1753       C  0.52942324  0.36870237  0.73470791     0.83000
O1754       O  0.59721942  0.32539289  0.61404176    -0.69100
O1755       O  0.61114169  0.28982162  0.76606284    -0.88400
C1756       C  0.57013513  0.32672862  0.62806824     0.83900
C1757       C  0.58380041  0.40899163  0.63722284     1.05400
H1758       H  0.56866026  0.30986695  0.69626112     0.37200
O1759       O  0.58396112  0.32317995  0.70809736    -1.11000
O1760       O  0.64394786  0.33695363  0.73158567    -0.67700
Ni1761     Ni  0.62551396  0.31393601  0.69052611     1.26300
O1762       O  0.56181830  0.34829530  0.64997198    -0.67900
O1763       O  0.62474071  0.27249772  0.71247253    -0.80200
C1764       C  0.67275559  0.30706028  0.63522494     0.83200
O1765       O  0.66611563  0.30453543  0.66880518    -0.67400
Ni1766     Ni  0.57641029  0.31997269  0.75854690     1.27400
Ni1767     Ni  0.58559798  0.36539570  0.68951249     1.26100
H1768       H  0.64142730  0.36813868  0.67846490     0.37800
O1769       O  0.81185408  0.47901962  0.63959187    -0.82200
O1770       O  0.76053881  0.09204337  0.54524260    -0.66900
O1771       O  0.78359957  0.01314120  0.58479718    -1.13500
C1772       C  0.87124518  0.01951482  0.50875264     1.04700
O1773       O  0.79132431  0.09968546  0.49761806    -0.80100
O1774       O  0.78186769  0.03538676  0.49125226    -0.67700
Ni1775     Ni  0.78039629  0.01098684  0.63600061     1.34900
C1776       C  0.77853751  0.50795148  0.50475218     0.83400
O1777       O  0.73212322  0.04967939  0.58372550    -0.80600
O1778       O  0.74854488  0.04343012  0.63945791    -0.90900
C1779       C  0.76956646  0.10868583  0.51917044     0.83000
O1780       O  0.81284376  0.04092733  0.63985638    -0.69100
O1781       O  0.84839298  0.02689990  0.48782174    -0.88400
C1782       C  0.81151702  0.06801687  0.62584794     0.83900
C1783       C  0.72923712  0.05442145  0.61667143     1.05400
H1784       H  0.82838175  0.06941282  0.55760183     0.37200
O1785       O  0.81504837  0.05412413  0.54577391    -1.11000
O1786       O  0.80123994  0.49412623  0.52230997    -0.67700
Ni1787     Ni  0.82424964  0.01257777  0.56336429     1.26300
O1788       O  0.78998275  0.07632967  0.60389812    -0.67900
O1789       O  0.86568962  0.01329305  0.54142476    -0.80200
C1790       C  0.83105264  0.46536936  0.61867836     0.83200
O1791       O  0.83359433  0.47198866  0.58509861    -0.67400
Ni1792     Ni  0.81825371  0.06164795  0.49532220     1.27400
Ni1793     Ni  0.77283712  0.05254216  0.56437865     1.26100
H1794       H  0.77003028  0.99673288  0.57543678     0.37800
O1795       O  0.86693638  0.42387178  0.61450972    -0.82200
O1796       O  0.98014800  0.37264288  0.70867271    -0.66900
O1797       O  0.90116384  0.39566622  0.66924753    -1.13500
C1798       C  0.90766475  0.48337218  0.74519932     1.04700
O1799       O  0.98785162  0.40347224  0.75625241    -0.80100
O1800       O  0.92358003  0.39400061  0.76273395    -0.67700
Ni1801     Ni  0.89889703  0.39240877  0.61805535     1.34900
C1802       C  0.89614089  0.39065068  0.74924992     0.83400
O1803       O  0.93772240  0.34417888  0.67028398    -0.80600
O1804       O  0.93131383  0.36054126  0.61454707    -0.90900
C1805       C  0.99682263  0.38169259  0.73471476     0.83000
O1806       O  0.92884756  0.42483698  0.61407896    -0.69100
O1807       O  0.91506824  0.46052454  0.76612523    -0.88400
C1808       C  0.95595504  0.42352834  0.62805103     0.83900
C1809       C  0.94236231  0.34125419  0.63731868     1.05400
H1810       H  0.95749550  0.44046318  0.69627434     0.37200
O1811       O  0.94222064  0.42714527  0.70814783    -1.11000
O1812       O  0.88227430  0.41336372  0.73175183    -0.67700
Ni1813     Ni  0.90064510  0.43634207  0.69063535     1.26300
O1814       O  0.96430834  0.40200683  0.64999323    -0.67900
O1815       O  0.90140665  0.47780513  0.71253689    -0.80200
C1816       C  0.85333242  0.44310084  0.63542361     0.83200
O1817       O  0.86001314  0.44567994  0.66898417    -0.67400
Ni1818     Ni  0.94981613  0.43039450  0.75858836     1.27400
Ni1819     Ni  0.94060571  0.38491415  0.68959284     1.26100
H1820       H  0.88476833  0.38211022  0.67866006     0.37800
O1821       O  0.48482799  0.34968687  0.49764466    -0.82200
O1822       O  0.94255384  0.22199045  0.58511122    -0.66900
O1823       O  0.96110092  0.30412618  0.54579547    -1.13500
C1824       C  0.54691149  0.30441628  0.61669203     1.04700
O1825       O  0.96429629  0.22901473  0.63960490    -0.80100
O1826       O  0.96330520  0.29092244  0.63987769    -0.67700
Ni1827     Ni  0.95789612  0.31165253  0.49534470     1.34900
C1828       C  0.96463275  0.31801195  0.62586920     0.83400
O1829       O  0.91045581  0.26330004  0.54144239    -0.80600
O1830       O  0.92775517  0.27690773  0.48784104    -0.90900
C1831       C  0.94509854  0.21536697  0.61868898     0.83000
O1832       O  0.99428056  0.28538850  0.49127138    -0.69100
O1833       O  0.52760383  0.29342595  0.63947967    -0.88400
C1834       C  0.99760788  0.25795091  0.50476795     0.83900
C1835       C  0.90490122  0.26952478  0.50877044     1.05400
H1836       H  0.00611596  0.24672991  0.57545212     0.37200
O1837       O  0.99254777  0.26313877  0.58481440    -1.11000
O1838       O  0.98616856  0.32632454  0.60392122    -0.67700
Ni1839     Ni  0.00331232  0.30253915  0.56439930     1.26300
O1840       O  0.97490524  0.24412756  0.52232689    -0.67900
O1841       O  0.54402545  0.29967131  0.58374680    -0.80200
C1842       C  0.50658614  0.35868443  0.51919705     0.83200
O1843       O  0.51561325  0.34204067  0.54526810    -0.67400
Ni1844     Ni  0.99575288  0.26098184  0.63601789     1.27400
Ni1845     Ni  0.95189734  0.26258000  0.56338157     1.26100
H1846       H  0.94776822  0.31941516  0.55762500     0.37800
O1847       O  0.78830382  0.15346282  0.75624730    -0.82200
O1848       O  0.91613716  0.19567672  0.66898820    -0.66900
O1849       O  0.83393062  0.17714228  0.70814391    -1.13500
C1850       C  0.83378724  0.09125825  0.63730076     1.04700
O1851       O  0.90921973  0.17386992  0.61451201    -0.80100
O1852       O  0.84730823  0.17484082  0.61407036    -0.67700
Ni1853     Ni  0.82633530  0.18038812  0.75858537     1.34900
C1854       C  0.82019879  0.17353100  0.62803834     0.83400
O1855       O  0.87474325  0.22780189  0.71253845    -0.80600
O1856       O  0.86107982  0.21052122  0.76612658    -0.90900
C1857       C  0.92282076  0.19309756  0.63542911     0.83000
O1858       O  0.85257417  0.14399620  0.76273007    -0.69100
O1859       O  0.84483833  0.11054625  0.61453205    -0.88400
C1860       C  0.88001393  0.14064892  0.74924661     0.83900
C1861       C  0.86848646  0.23336854  0.74520155     1.05400
H1862       H  0.89138197  0.13210770  0.67865447     0.37200
O1863       O  0.87498772  0.14566501  0.66924145    -1.11000
O1864       O  0.81184511  0.15201153  0.64998309    -0.67700
Ni1865     Ni  0.83554537  0.13491328  0.68958178     1.26300
O1866       O  0.89387803  0.16336234  0.73174815    -0.67900
O1867       O  0.83842706  0.09417957  0.67026649    -0.80200
C1868       C  0.77933176  0.13168868  0.73470389     0.83200
O1869       O  0.79600350  0.12264355  0.70865754    -0.67400
Ni1870     Ni  0.87725725  0.14241031  0.61804893     1.27400
Ni1871     Ni  0.87550556  0.18633980  0.69063384     1.26100
H1872       H  0.81865632  0.19046150  0.69627128     0.37800
O1873       O  0.98787629  0.34627808  0.25628294    -0.82200
O1874       O  0.86003910  0.30407643  0.16901475    -0.66900
O1875       O  0.94224533  0.32260396  0.20817908    -1.13500
C1876       C  0.94238939  0.40849921  0.13735421     1.04700
O1877       O  0.86695617  0.32589475  0.11454458    -0.80100
O1878       O  0.92886409  0.32491667  0.11410760    -0.67700
Ni1879     Ni  0.94983891  0.31935715  0.25862012     1.34900
C1880       C  0.95597431  0.32622249  0.12807158     0.83400
O1881       O  0.90142686  0.27194951  0.21256712    -0.80600
O1882       O  0.91509060  0.28922576  0.26615853    -0.90900
C1883       C  0.85335517  0.30666253  0.13545610     0.83000
O1884       O  0.92360200  0.35575302  0.26276430    -0.69100
O1885       O  0.93134349  0.38921105  0.11458280    -0.88400
C1886       C  0.89616246  0.35910114  0.24927987     0.83900
C1887       C  0.90767668  0.26638171  0.24523110     1.05400
H1888       H  0.88479591  0.36764432  0.17869621     0.37200
O1889       O  0.90119010  0.35408733  0.16928158    -1.11000
O1890       O  0.96433169  0.34773724  0.15002155    -0.67700
Ni1891     Ni  0.94063244  0.36483470  0.18962396     1.26300
O1892       O  0.88229826  0.33638631  0.23178329    -0.67900
O1893       O  0.93775216  0.40557186  0.17031938    -0.80200
C1894       C  0.99684830  0.36805424  0.23474139     0.83200
O1895       O  0.98017432  0.37710188  0.20869918    -0.67400
Ni1896     Ni  0.89892135  0.35735024  0.11809093     1.27400
Ni1897     Ni  0.90066997  0.31341089  0.19066623     1.26100
H1898       H  0.95751979  0.30928529  0.19630545     0.37800
O1899       O  0.79134754  0.15008285  0.99766006    -0.82200
O1900       O  0.83361767  0.27777928  0.08513051    -0.66900
O1901       O  0.81507036  0.19564365  0.04581274    -1.13500
C1902       C  0.72924907  0.19535777  0.11669881     1.04700
O1903       O  0.81187191  0.27075276  0.13962294    -0.80100
O1904       O  0.81284307  0.20884417  0.13991123    -0.67700
Ni1905     Ni  0.81827831  0.18811695  0.99536081     1.34900
C1906       C  0.81151620  0.18175496  0.12590100     0.83400
O1907       O  0.86571527  0.23647321  0.04145386    -0.80600
O1908       O  0.84841810  0.22286289  0.98785214    -0.90900
C1909       C  0.83107380  0.28439886  0.11870996     0.83000
O1910       O  0.78189418  0.21437980  0.99128395    -0.69100
O1911       O  0.74854628  0.20635735  0.13949184    -0.88400
C1912       C  0.77856450  0.24181732  0.00478016     0.83900
C1913       C  0.87127004  0.23025527  0.00877953     1.05400
H1914       H  0.77005451  0.25303942  0.07546528     0.37200
O1915       O  0.78362170  0.23663118  0.08483026    -1.11000
O1916       O  0.78999047  0.17344625  0.10393941    -0.67700
Ni1917     Ni  0.77285700  0.19723181  0.06441366     1.26300
O1918       O  0.80126447  0.25564183  0.02234271    -0.67900
O1919       O  0.73214178  0.20010217  0.08375412    -0.80200
C1920       C  0.76958740  0.14108590  0.01921039     0.83200
O1921       O  0.76055727  0.15773038  0.04528011    -0.67400
Ni1922     Ni  0.78040596  0.23879411  0.13603348     1.27400
Ni1923     Ni  0.82427359  0.23719023  0.06339744     1.26100
H1924       H  0.82840032  0.18035450  0.05764572     0.37800
O1925       O  0.96428741  0.02074793  0.13963614    -0.82200
O1926       O  0.51562401  0.40773979  0.04528559    -0.66900
O1927       O  0.99254581  0.48663231  0.08484437    -1.13500
C1928       C  0.90491052  0.48025829  0.00877323     1.04700
O1929       O  0.48484135  0.40009549  0.99765927    -0.80100
O1930       O  0.99429080  0.46439164  0.99129731    -0.67700
Ni1931     Ni  0.99575464  0.48878858  0.13604782     1.34900
C1932       C  0.99761621  0.99182642  0.00480099     0.83400
O1933       O  0.54403075  0.45010676  0.08377166    -0.80600
O1934       O  0.52761669  0.45635225  0.13950725    -0.90900
C1935       C  0.50659938  0.39109848  0.01921140     0.83000
O1936       O  0.96331832  0.45883722  0.13991451    -0.69100
O1937       O  0.92776764  0.47287255  0.98784976    -0.88400
C1938       C  0.96464988  0.43174916  0.12590163     0.83900
C1939       C  0.54691886  0.44535703  0.11671580     1.05400
H1940       H  0.94777624  0.43035623  0.05764228     0.37200
O1941       O  0.96110654  0.44564778  0.04581413    -1.11000
O1942       O  0.97491129  0.00564892  0.02235777    -0.67700
Ni1943     Ni  0.95189692  0.48719158  0.06340384     1.26300
O1944       O  0.98617915  0.42344431  0.10394175    -0.67900
O1945       O  0.91045892  0.48647414  0.04144978    -0.80200
C1946       C  0.94508839  0.03439688  0.11872194     0.83200
O1947       O  0.94254593  0.02777780  0.08514204    -0.67400
Ni1948     Ni  0.95790776  0.43812741  0.99535972     1.27400
Ni1949     Ni  0.00331713  0.44723662  0.06442297     1.26100
H1950       H  0.00611318  0.50304265  0.07548499     0.37800
O1951       O  0.90921655  0.07590332  0.11455516    -0.82200
O1952       O  0.79597884  0.12710559  0.20869385    -0.66900
O1953       O  0.87497113  0.10409292  0.16928863    -1.13500
C1954       C  0.86846710  0.01638118  0.24522524     1.04700
O1955       O  0.78826942  0.09627743  0.25627328    -0.80100
O1956       O  0.85253965  0.10575128  0.26276659    -0.67700
Ni1957     Ni  0.87725178  0.10736068  0.11809855     1.34900
C1958       C  0.87998034  0.10909984  0.24928558     0.83400
O1959       O  0.83840825  0.15557859  0.17032378    -0.80600
O1960       O  0.84483066  0.13922227  0.11458696    -0.90900
C1961       C  0.77930156  0.11805623  0.23473336     0.83000
O1962       O  0.84731059  0.07492769  0.11410655    -0.69100
O1963       O  0.86105289  0.03922468  0.26615338    -0.88400
C1964       C  0.82019999  0.07622839  0.12807086     0.83900
C1965       C  0.83377805  0.15850785  0.13735755     1.05400
H1966       H  0.81863348  0.05929075  0.19629707     0.37200
O1967       O  0.83390683  0.07260776  0.20817415    -1.11000
O1968       O  0.89384791  0.08638453  0.23179208    -0.67700
Ni1969     Ni  0.87548438  0.06341378  0.19066766     1.26300
O1970       O  0.81183541  0.09774606  0.15001395    -0.67900
O1971       O  0.87472072  0.02195021  0.21256251    -0.80200
C1972       C  0.92280904  0.05666492  0.13546660     0.83200
O1973       O  0.91611868  0.05407736  0.16902361    -0.67400
Ni1974     Ni  0.82630524  0.06935587  0.25861353     1.27400
Ni1975     Ni  0.83552451  0.11483993  0.18962422     1.26100
H1976       H  0.89136399  0.11764775  0.17870885     0.37800
O1977       O  0.53841747  0.40283051  0.25625643    -0.82200
O1978       O  0.66612067  0.44522274  0.16879143    -0.66900
O1979       O  0.58397454  0.42657193  0.20810102    -1.13500
C1980       C  0.58381135  0.34076269  0.13722671     1.04700
O1981       O  0.65913737  0.42348037  0.11429558    -0.80100
O1982       O  0.59722247  0.42437076  0.11405174    -0.67700
Ni1983     Ni  0.57643546  0.42977554  0.25855283     1.34900
C1984       C  0.57014034  0.42303625  0.12808355     0.83400
O1985       O  0.62474632  0.47725562  0.21246154    -0.80600
O1986       O  0.61116783  0.45992419  0.26605360    -0.90900
C1987       C  0.67276036  0.44269859  0.13521139     0.83000
O1988       O  0.60270019  0.39339631  0.26259422    -0.69100
O1989       O  0.59481305  0.36007135  0.11444580    -0.88400
C1990       C  0.63012712  0.39006834  0.24906968     0.83900
C1991       C  0.61849888  0.48279728  0.24513069     1.05400
H1992       H  0.64144152  0.38161731  0.17845296     0.37200
O1993       O  0.62501652  0.39516662  0.16909321    -1.11000
O1994       O  0.56182464  0.40146302  0.14998040    -0.67700
Ni1995     Ni  0.58561209  0.38435790  0.18951530     1.26300
O1996       O  0.64396703  0.41279991  0.23157203    -0.67900
O1997       O  0.58852936  0.34364639  0.17017758    -0.80200
C1998       C  0.52944813  0.38104503  0.23472859     0.83200
O1999       O  0.54610846  0.37201787  0.20866267    -0.67400
Ni2000     Ni  0.62720823  0.39196794  0.11789451     1.27400
Ni2001     Ni  0.62552349  0.43581820  0.19051846     1.26100
H2002       H  0.56866973  0.43988493  0.19627154     0.37800
O2003       O  0.73479901  0.09954371  0.99767359    -0.82200
O2004       O  0.69247303  0.47170449  0.08491717    -0.66900
O2005       O  0.71110025  0.05391860  0.04577677    -1.13500
C2006       C  0.79698919  0.05394371  0.11659268     1.04700
O2007       O  0.71429560  0.47856858  0.13939032    -0.80100
O2008       O  0.71339836  0.04047720  0.13981334    -0.67700
Ni2009     Ni  0.70785449  0.06153230  0.99533644     1.34900
C2010       C  0.71470511  0.06757701  0.12582414     0.83400
O2011       O  0.66040298  0.01315879  0.04137672    -0.80600
O2012       O  0.67770936  0.02680453  0.98779653    -0.90900
C2013       C  0.69504259  0.46499638  0.11847510     0.83000
O2014       O  0.74424227  0.03529335  0.99120907    -0.69100
O2015       O  0.77769894  0.04288103  0.13935438    -0.88400
C2016       C  0.74758879  0.50786262  0.00470829     0.83900
C2017       C  0.65484576  0.01943870  0.00871795     1.05400
H2018       H  0.75608856  0.99640546  0.07523945     0.37200
O2019       O  0.74254691  0.01281029  0.08465700    -1.11000
O2020       O  0.73626611  0.07594446  0.10393807    -0.67700
Ni2021     Ni  0.75333475  0.05225768  0.06431930     1.26300
O2022       O  0.72484918  0.49398525  0.02215559    -0.67900
O2023       O  0.79407048  0.04933179  0.08362185    -0.80200
C2024       C  0.75659597  0.10848894  0.01919978     0.83200
O2025       O  0.76563621  0.09180338  0.04524250    -0.67400
Ni2026     Ni  0.74579963  0.01050139  0.13584517     1.27400
Ni2027     Ni  0.70186529  0.01234242  0.06327856     1.26100
H2028       H  0.69779659  0.06920447  0.05765141     0.37800
O2029       O  0.61703616  0.17347685  0.11426351    -0.82200
O2030       O  0.73004539  0.12201842  0.20865024    -0.66900
O2031       O  0.65114747  0.14516806  0.16906665    -1.13500
C2032       C  0.65764639  0.23279479  0.24511790     1.04700
O2033       O  0.73773138  0.15283280  0.25624302    -0.80100
O2034       O  0.67344783  0.14339397  0.26257227    -0.67700
Ni2035     Ni  0.64896664  0.14196628  0.11786709     1.34900
C2036       C  0.64602151  0.14006624  0.24904664     0.83400
O2037       O  0.68763214  0.09364923  0.17015888    -0.80600
O2038       O  0.68136766  0.11007228  0.11442484    -0.90900
C2039       C  0.74670300  0.13104714  0.23471639     0.83000
O2040       O  0.67894836  0.17437106  0.11402889    -0.69100
O2041       O  0.66497485  0.20991906  0.26603781    -0.88400
C2042       C  0.70602763  0.17303840  0.12806644     0.83900
C2043       C  0.69236449  0.09076554  0.13721106     1.05400
H2044       H  0.70748629  0.18988713  0.19625831     0.37200
O2045       O  0.69218029  0.17657330  0.20808495    -1.11000
O2046       O  0.63218397  0.16279584  0.23154311    -0.67700
Ni2047     Ni  0.65063483  0.18581853  0.19049601     1.26300
O2048       O  0.71434081  0.15146729  0.14996736    -0.67900
O2049       O  0.65140464  0.22725601  0.21244601    -0.80200
C2050       C  0.60341049  0.19269475  0.13517841     0.83200
O2051       O  0.61004343  0.19521925  0.16875981    -0.67400
Ni2052     Ni  0.69971107  0.17977440  0.25853776     1.27400
Ni2053     Ni  0.69054649  0.13435990  0.18949670     1.26100
H2054       H  0.63472163  0.13161797  0.17842257     0.37800
O2055       O  0.56187839  0.22856213  0.13935903    -0.82200
O2056       O  0.51055596  0.34181886  0.04524304    -0.66900
O2057       O  0.53363703  0.26281870  0.08463715    -1.13500
C2058       C  0.62133760  0.26944590  0.00869429     1.04700
O2059       O  0.54138524  0.34955793  0.99766632    -0.80100
O2060       O  0.53194038  0.28531025  0.99119599    -0.67700
Ni2061     Ni  0.53037949  0.26049951  0.13582383     1.34900
C2062       C  0.52859618  0.25787965  0.00469616     0.83400
O2063       O  0.98211490  0.29934635  0.08361200    -0.80600
O2064       O  0.49848386  0.29288141  0.13934399    -0.90900
C2065       C  0.51959248  0.35850349  0.01919827     0.83000
O2066       O  0.56278340  0.29047057  0.13980522    -0.69100
O2067       O  0.59847453  0.27681889  0.98777556    -0.88400
C2068       C  0.56147753  0.31757421  0.12582547     0.83900
C2069       C  0.97919299  0.30394824  0.11658468     1.05400
H2070       H  0.57839076  0.31921382  0.05764146     0.37200
O2071       O  0.56508667  0.30393004  0.04576454    -1.11000
O2072       O  0.55133941  0.24400066  0.02213421    -0.67700
Ni2073     Ni  0.57431984  0.26235144  0.06325837     1.26300
O2074       O  0.53992212  0.32594653  0.10393496    -0.67900
O2075       O  0.61578168  0.26316748  0.04135398    -0.80200
C2076       C  0.58113301  0.21499399  0.11844254     0.83200
O2077       O  0.58370977  0.22170959  0.08488766    -0.67400
Ni2078     Ni  0.56832965  0.31154692  0.99532337     1.27400
Ni2079     Ni  0.52285239  0.30226980  0.06430996     1.26100
H2080       H  0.52009469  0.24641673  0.07521540     0.37800
O2081       O  0.73788006  0.40346818  0.74768208    -0.82200
O2082       O  0.61004588  0.44568550  0.83492724    -0.66900
O2083       O  0.69225212  0.42714728  0.79578051    -1.13500
C2084       C  0.69237068  0.34124305  0.86658565     1.04700
O2085       O  0.61694696  0.42385402  0.88939494    -0.80100
O2086       O  0.67885705  0.42482352  0.88984721    -0.67700
Ni2087     Ni  0.69985288  0.43040189  0.74534250     1.34900
C2088       C  0.70596561  0.42351532  0.87587735     0.83400
O2089       O  0.65144768  0.47781891  0.79139323    -0.80600
O2090       O  0.66511542  0.46054679  0.73780163    -0.90900
C2091       C  0.60335311  0.44309030  0.86848184     0.83000
O2092       O  0.67360627  0.39401446  0.74118607    -0.69100
O2093       O  0.68132684  0.36052792  0.88936290    -0.88400
C2094       C  0.64616466  0.39067189  0.75466723     0.83900
C2095       C  0.65770223  0.48339068  0.75873001     1.05400
H2096       H  0.63478558  0.38211890  0.82524485     0.37200
O2097       O  0.65118292  0.39566873  0.83466420    -1.11000
O2098       O  0.71432045  0.40199409  0.85393465    -0.67700
Ni2099     Ni  0.69062269  0.38491187  0.81432535     1.26300
O2100       O  0.63230464  0.41338899  0.77216319    -0.67900
O2101       O  0.68772412  0.34417363  0.83362282    -0.80200
C2102       C  0.74684159  0.38168076  0.76921444     0.83200
O2103       O  0.73016297  0.37263191  0.79525270    -0.67400
Ni2104     Ni  0.64890880  0.39239518  0.88585449     1.27400
Ni2105     Ni  0.65067736  0.43635008  0.81328676     1.26100
H2106       H  0.70752866  0.44045945  0.80765910     0.37800
O2107       O  0.54134569  0.09966147  0.00627015    -0.82200
O2108       O  0.58361886  0.47197257  0.91880050    -0.66900
O2109       O  0.56507316  0.05410457  0.95811778    -1.13500
C2110       C  0.97925669  0.05439582  0.88722688     1.04700
O2111       O  0.56187331  0.47899869  0.86430791    -0.80100
O2112       O  0.56286051  0.04090556  0.86403112    -0.67700
Ni2113     Ni  0.56828409  0.06163094  0.00856828     1.34900
C2114       C  0.56153238  0.06799499  0.87803985     0.83400
O2115       O  0.61572224  0.01327672  0.96246766    -0.80600
O2116       O  0.59843340  0.02688930  0.01607323    -0.90900
C2117       C  0.58107282  0.46535225  0.88522291     0.83000
O2118       O  0.53190313  0.03536443  0.01264812    -0.69100
O2119       O  0.49856244  0.04340775  0.86443708    -0.88400
C2120       C  0.52857452  0.50792904  0.99914508     0.83900
C2121       C  0.62128206  0.01949305  0.99514101     1.05400
H2122       H  0.52006012  0.99670836  0.92846121     0.37200
O2123       O  0.53362614  0.01311847  0.91909870    -1.11000
O2124       O  0.54000034  0.07630501  0.89999499    -0.67700
Ni2125     Ni  0.52285906  0.05251483  0.93951610     1.26300
O2126       O  0.55127639  0.49410620  0.98158486    -0.67900
O2127       O  0.98214435  0.04964536  0.92017106    -0.80200
C2128       C  0.51958070  0.10865398  0.98472320     0.83200
O2129       O  0.51055287  0.09200971  0.95865383    -0.67400
Ni2130     Ni  0.53041510  0.01096412  0.86789579     1.27400
Ni2131     Ni  0.57427818  0.01256040  0.94053021     1.26100
H2132       H  0.57840356  0.06939399  0.94628637     0.37800
O2133       O  0.78838527  0.34686983  0.74771225    -0.82200
O2134       O  0.91612667  0.30451524  0.83511729    -0.66900
O2135       O  0.83396940  0.32315301  0.79583578    -1.13500
C2136       C  0.83381767  0.40897296  0.86668939     1.04700
O2137       O  0.90913492  0.32624710  0.88961868    -0.80100
O2138       O  0.84722093  0.32536969  0.88987438    -0.67700
Ni2139     Ni  0.82640856  0.31993398  0.74539127     1.34900
C2140       C  0.82013980  0.32670799  0.87584115     0.83400
O2141       O  0.87475300  0.27247281  0.79145511    -0.80600
O2142       O  0.86114811  0.28979531  0.73786693    -0.90900
C2143       C  0.92276175  0.30703377  0.86869934     0.83000
O2144       O  0.85266142  0.35631716  0.74132179    -0.69100
O2145       O  0.84482080  0.38966894  0.88947490    -0.88400
C2146       C  0.88009174  0.35965507  0.75483340     0.83900
C2147       C  0.86851029  0.26692884  0.75878497     1.05400
H2148       H  0.89144309  0.36810929  0.82546367     0.37200
O2149       O  0.87501761  0.35456228  0.83482702    -1.11000
O2150       O  0.81182677  0.34828432  0.85394807    -0.67700
Ni2151     Ni  0.83561576  0.36537461  0.81440832     1.26300
O2152       O  0.89394438  0.33693289  0.77233583    -0.67900
O2153       O  0.83854386  0.40608736  0.83373991    -0.80200
C2154       C  0.77943623  0.36867883  0.76922107     0.83200
O2155       O  0.79611530  0.37772562  0.79526181    -0.67400
Ni2156     Ni  0.87721200  0.35776609  0.88602519     1.27400
Ni2157     Ni  0.87552321  0.31391099  0.81340109     1.26100
H2158       H  0.81866970  0.30984233  0.80767728     0.37800
O2159       O  0.48477619  0.15018813  0.00624835    -0.82200
O2160       O  0.94246090  0.27802310  0.91899296    -0.66900
O2161       O  0.96108398  0.19581166  0.95814111    -1.13500
C2162       C  0.54698696  0.19578844  0.88734413     1.04700
O2163       O  0.96429839  0.27116396  0.86452516    -0.80100
O2164       O  0.96339412  0.20925650  0.86410650    -0.67700
Ni2165     Ni  0.95783459  0.18820157  0.00858148     1.34900
C2166       C  0.96469790  0.18215599  0.87809329     0.83400
O2167       O  0.91038641  0.23657246  0.96253549    -0.80600
O2168       O  0.92769420  0.22293398  0.01611763    -0.90900
C2169       C  0.94503981  0.28473384  0.88543659     0.83000
O2170       O  0.99422446  0.21443746  0.01270434    -0.69100
O2171       O  0.52769528  0.20684270  0.86457882    -0.88400
C2172       C  0.99756892  0.24186690  0.99920060     0.83900
C2173       C  0.90483092  0.23030048  0.99519696     1.05400
H2174       H  0.00607402  0.25332593  0.92868260     0.37200
O2175       O  0.99253489  0.23691970  0.91926442    -1.11000
O2176       O  0.98625560  0.17378647  0.89998417    -0.67700
Ni2177     Ni  0.00332170  0.19747480  0.93960617     1.26300
O2178       O  0.97482636  0.25574410  0.98175905    -0.67900
O2179       O  0.54406165  0.20040266  0.92031349    -0.80200
C2180       C  0.50658257  0.14124767  0.98473120     0.83200
O2181       O  0.51562544  0.15793366  0.95869025    -0.67400
Ni2182     Ni  0.99579870  0.23922627  0.86807840     1.27400
Ni2183     Ni  0.95185013  0.23738656  0.94063556     1.26100
H2184       H  0.94778284  0.18052453  0.94626587     0.37800
O2185       O  0.86703206  0.07625168  0.88961653    -0.82200
O2186       O  0.98005649  0.12771490  0.79526238    -0.66900
O2187       O  0.90115219  0.10456567  0.83482684    -1.13500
C2188       C  0.90764626  0.01693252  0.75878250     1.04700
O2189       O  0.98777268  0.09687142  0.74769882    -0.80100
O2190       O  0.92349679  0.10631937  0.74131788    -0.67700
Ni2191     Ni  0.89895570  0.10776856  0.88602531     1.34900
C2192       C  0.89606684  0.10965619  0.75483118     0.83400
O2193       O  0.93763698  0.15608529  0.83374544    -0.80600
O2194       O  0.93134811  0.13966849  0.88947947    -0.90900
C2195       C  0.99672849  0.11867251  0.76921369     0.83000
O2196       O  0.92894672  0.07537142  0.88988195    -0.69100
O2197       O  0.91500969  0.03979759  0.73786309    -0.88400
C2198       C  0.95603044  0.07670919  0.87585415     0.83900
C2199       C  0.94235767  0.15897047  0.86669624     1.05400
H2200       H  0.95749365  0.05984013  0.80767151     0.37200
O2201       O  0.94219485  0.07315283  0.79583138    -1.11000
O2202       O  0.88221701  0.08693469  0.77233605    -0.67700
Ni2203     Ni  0.90064162  0.06391469  0.81339912     1.26300
O2204       O  0.96434300  0.09827633  0.85394874    -0.67900
O2205       O  0.90140757  0.02247719  0.79145339    -0.80200
C2206       C  0.85340567  0.05703932  0.86869682     0.83200
O2207       O  0.86003901  0.05452270  0.83511471    -0.67400
Ni2208     Ni  0.94974989  0.06993582  0.74538415     1.27400
Ni2209     Ni  0.94055566  0.11537243  0.81440976     1.35700
H2210       H  0.88472927  0.11811546  0.82546274     0.37800
O2211       O  0.81187515  0.02116623  0.86452016    -0.82200
O2212       O  0.76055062  0.40793139  0.95867522    -0.66900
O2213       O  0.78364454  0.48691925  0.91925694    -1.13500
C2214       C  0.87135101  0.48029544  0.99518496     1.04700
O2215       O  0.79142067  0.40016661  0.00621092    -0.80100
O2216       O  0.78196132  0.46441567  0.01269263    -0.67700
Ni2217     Ni  0.78037478  0.48922946  0.86807168     1.34900
C2218       C  0.77861341  0.99184921  0.99919976     0.83400
O2219       O  0.73211559  0.45041066  0.92031209    -0.80600
O2220       O  0.74847515  0.45684791  0.86457414    -0.90900
C2221       C  0.76960471  0.39123483  0.98470227     0.83000
O2222       O  0.81277809  0.45925813  0.86409252    -0.69100
O2223       O  0.84848832  0.47292026  0.01610258    -0.88400
C2224       C  0.81147455  0.43215794  0.87808014     0.83900
C2225       C  0.72918593  0.44579526  0.88734366     1.05400
H2226       H  0.82839914  0.43052050  0.94623885     0.37200
O2227       O  0.81509936  0.44580535  0.95812047    -1.11000
O2228       O  0.80135226  0.00573102  0.98175554    -0.67700
Ni2229     Ni  0.82433023  0.48738334  0.94062455     1.26300
O2230       O  0.78991454  0.42378838  0.89996770    -0.67900
O2231       O  0.86579578  0.48656927  0.96252350    -0.80200
C2232       C  0.83113152  0.03473687  0.88543296     0.83200
O2233       O  0.83371265  0.02802393  0.91898869    -0.67400
Ni2234     Ni  0.81835466  0.43818448  0.00855680     1.27400
Ni2235     Ni  0.77285773  0.44747430  0.93959573     1.26100
H2236       H  0.77010682  0.50332541  0.92867856     0.37800
O2237       O  0.65922965  0.17384901  0.88936545    -0.82200
O2238       O  0.54599725  0.12262872  0.79524797    -0.66900
O2239       O  0.62498357  0.14566085  0.83464375    -1.13500
C2240       C  0.61845196  0.23338871  0.75871857     1.04700
O2241       O  0.53828556  0.15345354  0.74766554    -0.80100
O2242       O  0.60255752  0.14401156  0.74116616    -0.67700
Ni2243     Ni  0.62726759  0.14239069  0.88583378     1.34900
C2244       C  0.62999790  0.14067082  0.75464943     0.83400
O2245       O  0.58843444  0.09416627  0.83361867    -0.80600
O2246       O  0.59485140  0.11052519  0.88935452    -0.90900
C2247       C  0.52932212  0.13167204  0.76920445     0.83000
O2248       O  0.59731838  0.17481873  0.88983235    -0.69100
O2249       O  0.61103761  0.21054770  0.73778652    -0.88400
C2250       C  0.57020676  0.17350994  0.87587027     0.83900
C2251       C  0.58379935  0.09123908  0.86658489     1.05400
H2252       H  0.56863270  0.19045077  0.80764545     0.37200
O2253       O  0.58390928  0.17713858  0.79576576    -1.11000
O2254       O  0.64385639  0.16339020  0.77214075    -0.67700
Ni2255     Ni  0.62548411  0.18634382  0.81326798     1.26300
O2256       O  0.56184850  0.15199049  0.85392727    -0.67900
O2257       O  0.62470735  0.22781332  0.79138010    -0.80200
C2258       C  0.67281715  0.19308745  0.86845003     0.83200
O2259       O  0.66611760  0.19568278  0.83489807    -0.67400
Ni2260     Ni  0.57630647  0.18039480  0.74532721     1.27400
Ni2261     Ni  0.58553958  0.13490430  0.81431451     1.26100
H2262       H  0.64137952  0.13211114  0.82522022     0.37800
O2263       O  0.71429059  0.22900334  0.86426719    -0.82200
O2264       O  0.76563682  0.34199281  0.95862656    -0.66900
O2265       O  0.74254725  0.26310986  0.91905952    -1.13500
C2266       C  0.65489994  0.26948981  0.99511284     1.04700
O2267       O  0.73483161  0.34965496  0.00623063    -0.80100
O2268       O  0.74427883  0.28535815  0.01260954    -0.67700
Ni2269     Ni  0.74575269  0.26096487  0.86785570     1.34900
C2270       C  0.74760870  0.25792152  0.99911122     0.83400
O2271       O  0.79403229  0.29962128  0.92013885    -0.80600
O2272       O  0.77760986  0.29340597  0.86440331    -0.90900
C2273       C  0.75660407  0.35864186  0.98469049     0.83000
O2274       O  0.71330922  0.29091061  0.86400608    -0.69100
O2275       O  0.67775190  0.27688097  0.01604128    -0.88400
C2276       C  0.71464194  0.31799660  0.87802275     0.83900
C2277       C  0.79691779  0.30438562  0.88719772     1.05400
H2278       H  0.69777597  0.31938730  0.94625475     0.37200
O2279       O  0.71110591  0.30409681  0.95808458    -1.11000
O2280       O  0.72490882  0.24409809  0.98154794    -0.67700
Ni2281     Ni  0.70189886  0.26255316  0.94049674     1.26300
O2282       O  0.73618281  0.32630061  0.89996843    -0.67900
O2283       O  0.66045632  0.26327055  0.96243934    -0.80200
C2284       C  0.69509757  0.21535140  0.88518622     0.83200
O2285       O  0.69255774  0.22196734  0.91876575    -0.67400
Ni2286     Ni  0.70789670  0.31162378  0.00853344     1.27400
Ni2287     Ni  0.75332015  0.30250118  0.93948392     1.26100
H2288       H  0.75611267  0.24669622  0.92841649     0.37800
O2289       O  0.56186852  0.27075839  0.36426097    -0.82200
O2290       O  0.51053239  0.15776747  0.45861875    -0.66900
O2291       O  0.53361888  0.23664885  0.41905422    -1.13500
C2292       C  0.62127012  0.23027746  0.49510942     1.04700
O2293       O  0.54132855  0.15011262  0.50623146    -0.80100
O2294       O  0.53189092  0.21440931  0.51260576    -0.67700
Ni2295     Ni  0.53040033  0.23880211  0.36785121     1.34900
C2296       C  0.52856343  0.24184442  0.49910370     0.83400
O2297       O  0.98213124  0.20013626  0.42013815    -0.80600
O2298       O  0.49853855  0.20636392  0.36439869    -0.90900
C2299       C  0.51956046  0.14112316  0.48468769     0.83000
O2300       O  0.56283564  0.20885120  0.36397886    -0.69100
O2301       O  0.59842014  0.22287881  0.51603805    -0.88400
C2302       C  0.56150546  0.18176473  0.37799430     0.83900
C2303       C  0.97923999  0.19537368  0.38719715     1.05400
H2304       H  0.57838731  0.18036884  0.44624541     0.37200
O2305       O  0.56506046  0.19566147  0.45807728    -1.11000
O2306       O  0.55126477  0.25566377  0.48153910    -0.67700
Ni2307     Ni  0.57427047  0.23720309  0.44048815     1.26300
O2308       O  0.53997694  0.17346166  0.39995628    -0.67900
O2309       O  0.61571357  0.23648596  0.46243283    -0.80200
C2310       C  0.58107016  0.28440367  0.38517552     0.83200
O2311       O  0.58361515  0.27778619  0.41875403    -0.67400
Ni2312     Ni  0.56826953  0.18813932  0.50852892     1.27400
Ni2313     Ni  0.52284572  0.19725825  0.43947750     1.26100
H2314       H  0.52005521  0.25306163  0.42841608     0.37800
O2315       O  0.61693687  0.32590759  0.38934732    -0.82200
O2316       O  0.73017619  0.37711041  0.29523204    -0.66900
O2317       O  0.65118903  0.35408231  0.33462387    -1.13500
C2318       C  0.65770984  0.26635638  0.25869971     1.04700
O2319       O  0.73789806  0.34627728  0.24765893    -0.80100
O2320       O  0.67362694  0.35573112  0.24115427    -0.67700
Ni2321     Ni  0.64889923  0.35736514  0.38581166     1.34900
C2322       C  0.64618534  0.35907382  0.25463516     0.83400
O2323       O  0.68773356  0.40557740  0.33358605    -0.80600
O2324       O  0.68131659  0.38923110  0.38932585    -0.90900
C2325       C  0.74685631  0.36806376  0.26919429     0.83000
O2326       O  0.67884466  0.32493718  0.38982293    -0.69100
O2327       O  0.66513602  0.28919531  0.23776991    -0.88400
C2328       C  0.70595692  0.32624118  0.37586280     0.83900
C2329       C  0.69236686  0.40851350  0.36655088     1.05400
H2330       H  0.70754207  0.30928846  0.30763673     0.37200
O2331       O  0.69226636  0.32259904  0.29575394    -1.11000
O2332       O  0.63232364  0.33635361  0.27212297    -0.67700
Ni2333     Ni  0.65068929  0.31339818  0.31325288     1.26300
O2334       O  0.71431926  0.34775571  0.35391515    -0.67900
O2335       O  0.65146191  0.27193007  0.29136356    -0.80200
C2336       C  0.60335243  0.30666389  0.36843530     0.83200
O2337       O  0.61005460  0.30406212  0.33488403    -0.67400
Ni2338     Ni  0.69987227  0.31934237  0.24531590     1.27400
Ni2339     Ni  0.69063314  0.36483566  0.31429520     1.26100
H2340       H  0.63479391  0.36763101  0.32519742     0.37800
O2341       O  0.96428202  0.47858408  0.36454102    -0.82200
O2342       O  0.51560446  0.09184022  0.45866442    -0.66900
O2343       O  0.99252015  0.01284189  0.41926802    -1.13500
C2344       C  0.90480682  0.01948148  0.49517903     1.04700
O2345       O  0.48475198  0.09959791  0.50621833    -0.80100
O2346       O  0.99419581  0.03535244  0.51270846    -0.67700
Ni2347     Ni  0.99578420  0.01051860  0.36808220     1.34900
C2348       C  0.99754287  0.50792033  0.49921423     0.83400
O2349       O  0.54404468  0.04935928  0.42030498    -0.80600
O2350       O  0.52768359  0.04289605  0.36457069    -0.90900
C2351       C  0.50655983  0.10853197  0.48470018     0.83000
O2352       O  0.96338155  0.04049165  0.36409533    -0.69100
O2353       O  0.92766336  0.02686012  0.51610392    -0.88400
C2354       C  0.96468345  0.06759388  0.37807953     0.83900
C2355       C  0.54697054  0.05396206  0.38733330     1.05400
H2356       H  0.94776445  0.06924566  0.44624195     0.37200
O2357       O  0.96106512  0.05396237  0.45812451    -1.11000
O2358       O  0.97480442  0.49403907  0.48176983    -0.67700
Ni2359     Ni  0.95183440  0.01238224  0.44063432     1.26300
O2360       O  0.98624435  0.07596822  0.39996247    -0.67900
O2361       O  0.91036892  0.01320325  0.46252176    -0.80200
C2362       C  0.94502442  0.46502022  0.38545740     0.83200
O2363       O  0.94244739  0.47173855  0.41901121    -0.67400
Ni2364     Ni  0.95780769  0.06158794  0.50856141     1.27400
Ni2365     Ni  0.00330415  0.05229316  0.43959495     1.26100
H2366       H  0.00605852  0.99643868  0.42869486     0.37800
O2367       O  0.90911541  0.42351047  0.38964435    -0.82200
O2368       O  0.79611763  0.37202883  0.29526073    -0.66900
O2369       O  0.87500833  0.39519388  0.33484555    -1.13500
C2370       C  0.86850535  0.48282166  0.25880413     1.04700
O2371       O  0.78840317  0.40287056  0.24769670    -0.80100
O2372       O  0.85268102  0.39342975  0.24133734    -0.67700
Ni2373     Ni  0.87718981  0.39199493  0.38604402     1.34900
C2374       C  0.88010843  0.39009594  0.25485762     0.83400
O2375       O  0.83853652  0.34366893  0.33375042    -0.80600
O2376       O  0.84479604  0.36009462  0.38948468    -0.90900
C2377       C  0.77944857  0.38106690  0.26920855     0.83000
O2378       O  0.84720015  0.42439545  0.38988064    -0.69100
O2379       O  0.86116011  0.45995220  0.23788296    -0.88400
C2380       C  0.82012129  0.42305746  0.37584151     0.83900
C2381       C  0.83380194  0.34078622  0.36669810     1.05400
H2382       H  0.81866322  0.43991032  0.30767275     0.37200
O2383       O  0.83396723  0.42659871  0.29583933    -1.11000
O2384       O  0.89395279  0.41282135  0.27236221    -0.67700
Ni2385     Ni  0.87551533  0.43584311  0.31341874     1.26300
O2386       O  0.81181253  0.40147853  0.35394845    -0.67900
O2387       O  0.87474432  0.47728003  0.29147497    -0.80200
C2388       C  0.92274445  0.44272200  0.36872516     0.83200
O2389       O  0.91611158  0.44524112  0.33514348    -0.67400
Ni2390     Ni  0.82642265  0.42981085  0.24539132     1.27400
Ni2391     Ni  0.83561151  0.38438069  0.31441695     1.26100
H2392       H  0.89143657  0.38164660  0.32548833     0.37800
O2393       O  0.73480554  0.40012164  0.50623008    -0.82200
O2394       O  0.69252264  0.02779487  0.41875000    -0.66900
O2395       O  0.71107599  0.44567105  0.45807717    -1.13500
C2396       C  0.79689683  0.44538230  0.38719387     1.04700
O2397       O  0.71426390  0.02075920  0.36425465    -0.80100
O2398       O  0.71329567  0.45885111  0.36398092    -0.67700
Ni2399     Ni  0.70786901  0.43815085  0.50852933     1.34900
C2400       C  0.71462830  0.43176542  0.37799859     0.83400
O2401       O  0.66042438  0.48649738  0.46243701    -0.80600
O2402       O  0.67772486  0.47289474  0.51603976    -0.90900
C2403       C  0.69506641  0.03440953  0.38517041     0.83000
O2404       O  0.74425043  0.46441607  0.51259949    -0.69100
O2405       O  0.77759461  0.45636643  0.36439591    -0.88400
C2406       C  0.74757973  0.99184938  0.49909448     0.83900
C2407       C  0.65487179  0.48028918  0.49511467     1.05400
H2408       H  0.75607928  0.50306968  0.42840649     0.37200
O2409       O  0.74251550  0.48665579  0.41904871    -1.11000
O2410       O  0.73615963  0.42346559  0.39995849    -0.67700
Ni2411     Ni  0.75329072  0.44726749  0.43947583     1.26300
O2412       O  0.72487757  0.00567132  0.48153347    -0.67900
O2413       O  0.79400533  0.45014651  0.42013461    -0.80200
C2414       C  0.75657705  0.39113401  0.48468936     0.83200
O2415       O  0.76560730  0.40777925  0.45862197    -0.67400
Ni2416     Ni  0.74573103  0.48880338  0.36784600     1.27400
Ni2417     Ni  0.70186584  0.48721232  0.44048691     1.26100
H2418       H  0.69774883  0.43037835  0.44624688     0.37800
O2419       O  0.53824542  0.09627885  0.24764776    -0.82200
O2420       O  0.66608772  0.05407220  0.33487812    -0.66900
O2421       O  0.58387674  0.07260387  0.29574572    -1.13500
C2422       C  0.58376737  0.15851570  0.36654318     1.04700
O2423       O  0.65920141  0.07591504  0.38934141    -0.80100
O2424       O  0.59729534  0.07494061  0.38981200    -0.67700
Ni2425     Ni  0.57627247  0.06934379  0.24530832     1.34900
C2426       C  0.57018341  0.07624250  0.37585163     0.83400
O2427       O  0.62468261  0.02193701  0.29136579    -0.80600
O2428       O  0.61100908  0.03919535  0.23776919    -0.90900
C2429       C  0.67278697  0.05667180  0.36842984     0.83000
O2430       O  0.60251850  0.10573156  0.24114095    -0.69100
O2431       O  0.59481919  0.13923372  0.38931703    -0.88400
C2432       C  0.62996046  0.10907457  0.25462025     0.83900
C2433       C  0.61843400  0.01635939  0.25870394     1.05400
H2434       H  0.64134487  0.11764010  0.32518736     0.37200
O2435       O  0.62495069  0.10409057  0.33461475    -1.11000
O2436       O  0.56181938  0.09775732  0.35390529    -0.67700
Ni2437     Ni  0.58550527  0.11484001  0.31428620     1.26300
O2438       O  0.64382062  0.08635700  0.27211401    -0.67900
O2439       O  0.58839953  0.15558127  0.33357781    -0.80200
C2440       C  0.52928326  0.11806281  0.26918503     0.83200
O2441       O  0.54596143  0.12711032  0.29522329    -0.67400
Ni2442     Ni  0.62723816  0.10737088  0.38580330     1.27400
Ni2443     Ni  0.62545346  0.06340610  0.31324698     1.26100
H2444       H  0.56860173  0.05929202  0.30762805     0.37800
O2445       O  0.79138782  0.34961202  0.50622271    -0.82200
O2446       O  0.83370756  0.22175124  0.41902320    -0.66900
O2447       O  0.81508049  0.30397664  0.45813179    -1.13500
C2448       C  0.72917236  0.30396369  0.38734538     1.04700
O2449       O  0.81186613  0.22859014  0.36455561    -0.80100
O2450       O  0.81276152  0.29049920  0.36410306    -0.67700
Ni2451     Ni  0.81833452  0.31160335  0.50856888     1.34900
C2452       C  0.81145695  0.31760226  0.37808515     0.83400
O2453       O  0.86578055  0.26322098  0.46253473    -0.80600
O2454       O  0.84848185  0.27687754  0.51611639    -0.90900
C2455       C  0.83112583  0.21502800  0.38547086     0.83000
O2456       O  0.78194682  0.28536597  0.51271214    -0.69100
O2457       O  0.74846050  0.29289893  0.36458272    -0.88400
C2458       C  0.77860341  0.25793308  0.49921708     0.83900
C2459       C  0.87133995  0.26949672  0.49519349     1.05400
H2460       H  0.77009342  0.24644686  0.42870724     0.37200
O2461       O  0.78362959  0.26285103  0.41927928    -1.11000
O2462       O  0.78989587  0.32597618  0.39996864    -0.67700
Ni2463     Ni  0.77284078  0.30230212  0.43960414     1.26300
O2464       O  0.80134745  0.24405303  0.48178053    -0.67900
O2465       O  0.73209977  0.29936326  0.42031718    -0.80200
C2466       C  0.76957978  0.35854372  0.48470393     0.83200
O2467       O  0.76053637  0.34184982  0.45866997    -0.67400
Ni2468     Ni  0.78036237  0.26052356  0.36809478     1.27400
Ni2469     Ni  0.82431619  0.26239630  0.44064403     1.26100
H2470       H  0.82837884  0.31926122  0.44624823     0.37800
O2471       O  0.98773393  0.15286957  0.24769252    -0.82200
O2472       O  0.86003124  0.19524142  0.33515408    -0.66900
O2473       O  0.94217242  0.17659463  0.29584139    -1.13500
C2474       C  0.94233604  0.09077701  0.36669462     1.04700
O2475       O  0.86702725  0.17350850  0.38965365    -0.80100
O2476       O  0.92894057  0.17438258  0.38988670    -0.67700
Ni2477     Ni  0.94971485  0.17981065  0.24539272     1.34900
C2478       C  0.95601830  0.17304693  0.37584427     0.83400
O2479       O  0.90139792  0.22727975  0.29148325    -0.80600
O2480       O  0.91497663  0.20995201  0.23788959    -0.90900
C2481       C  0.85340104  0.19272431  0.36873686     0.83000
O2482       O  0.92345725  0.14343063  0.24133838    -0.69100
O2483       O  0.93133912  0.11008233  0.38948342    -0.88400
C2484       C  0.89603134  0.14009572  0.25486211     0.83900
C2485       C  0.90763503  0.23282194  0.25881178     1.05400
H2486       H  0.88470230  0.13164434  0.32549127     0.37200
O2487       O  0.90113123  0.14518992  0.33484891    -1.11000
O2488       O  0.96432759  0.15147007  0.35394803    -0.67700
Ni2489     Ni  0.94052745  0.13437542  0.31441599     1.26300
O2490       O  0.88218659  0.16282075  0.27236820    -0.67900
O2491       O  0.93760261  0.09366242  0.33374701    -0.80200
C2492       C  0.99668882  0.13106327  0.26920069     0.83200
O2493       O  0.98002034  0.12202283  0.29525318    -0.67400
Ni2494     Ni  0.89894823  0.14198677  0.38604740     1.27400
Ni2495     Ni  0.90062568  0.18584090  0.31342485     1.26100
H2496       H  0.95747755  0.18990426  0.30767482     0.37800
O2497       O  0.54137901  0.90022729  0.49766681    -0.82200
O2498       O  0.58368686  0.52806057  0.58493501    -0.66900
O2499       O  0.56507048  0.94585273  0.54577169    -1.13500
C2500       C  0.97917572  0.94580873  0.61658432     1.04700
O2501       O  0.56186348  0.52118462  0.63940814    -0.80100
O2502       O  0.56277122  0.95927902  0.63981175    -0.67700
Ni2503     Ni  0.56831155  0.93824700  0.49532991     1.34900
C2504       C  0.56146591  0.93217999  0.62582200     0.83400
O2505       O  0.61576192  0.98662130  0.54136690    -0.80600
O2506       O  0.59844299  0.97298507  0.48778961    -0.90900
C2507       C  0.58111516  0.53476206  0.61849507     0.83000
O2508       O  0.53191668  0.96447828  0.49121888    -0.69100
O2509       O  0.49846961  0.95685990  0.63935107    -0.88400
C2510       C  0.52856870  0.49190816  0.50472275     0.83900
C2511       C  0.62131196  0.98034683  0.50870393     1.05400
H2512       H  0.52007767  0.00335644  0.57525323     0.37200
O2513       O  0.53362129  0.98695053  0.58466453    -1.11000
O2514       O  0.53990929  0.92381375  0.60392868    -0.67700
Ni2515     Ni  0.52283582  0.94750822  0.56431606     1.26300
O2516       O  0.55130801  0.50578723  0.52216908    -0.67900
O2517       O  0.98209801  0.95043045  0.58361622    -0.80200
C2518       C  0.51957795  0.89128166  0.51918770     0.83200
O2519       O  0.51053299  0.90796722  0.54522846    -0.67400
Ni2520     Ni  0.53036472  0.98924711  0.63585230     1.27400
Ni2521     Ni  0.57430121  0.98742693  0.56328108     1.26100
H2522       H  0.57837575  0.93056645  0.55764276     0.37800
O2523       O  0.73776673  0.59691412  0.75622709    -0.82200
O2524       O  0.61004036  0.55453181  0.66881117    -0.66900
O2525       O  0.69219685  0.57317721  0.70809030    -1.13500
C2526       C  0.69234965  0.65899201  0.63721362     1.04700
O2527       O  0.61701166  0.57628071  0.61431587    -0.80100
O2528       O  0.67892667  0.57539603  0.61403048    -0.67700
Ni2529     Ni  0.69974874  0.56997136  0.75854062     1.34900
C2530       C  0.70601274  0.57673099  0.62805228     0.83400
O2531       O  0.65141907  0.52249471  0.71247552    -0.80600
O2532       O  0.66501662  0.53982360  0.76606370    -0.90900
C2533       C  0.60339462  0.55705979  0.63523304     0.83000
O2534       O  0.67348680  0.60635127  0.76259553    -0.69100
O2535       O  0.68133238  0.63969127  0.61443438    -0.88400
C2536       C  0.64605670  0.60967903  0.74907997     0.83900
C2537       C  0.65766401  0.51695303  0.74514646     1.05400
H2538       H  0.63472786  0.61813650  0.67846700     0.37200
O2539       O  0.65114851  0.60458657  0.66909813    -1.11000
O2540       O  0.71433174  0.59829438  0.64995865    -0.67700
Ni2541     Ni  0.69055785  0.61539331  0.68950452     1.26300
O2542       O  0.63221265  0.58694875  0.73158558    -0.67900
O2543       O  0.68764046  0.65610562  0.67016665    -0.80200
C2544       C  0.74673309  0.61869773  0.73469553     0.83200
O2545       O  0.73006764  0.62772829  0.70863615    -0.67400
Ni2546     Ni  0.64893876  0.60779404  0.61789998     1.27400
Ni2547     Ni  0.65064347  0.56393254  0.69052499     1.26100
H2548       H  0.70749763  0.55986485  0.69625203     0.37800
O2549       O  0.71428953  0.77118652  0.63939291    -0.82200
O2550       O  0.76561429  0.65796526  0.54521008    -0.66900
O2551       O  0.74252849  0.73695038  0.58464688    -1.13500
C2552       C  0.65483210  0.73034274  0.50869542     1.04700
O2553       O  0.73478040  0.65023671  0.49763694    -0.80100
O2554       O  0.74423225  0.71449155  0.49120224    -0.67700
Ni2555     Ni  0.74578719  0.73924674  0.63583439     1.34900
C2556       C  0.74757595  0.74191930  0.50471163     0.83400
O2557       O  0.79405207  0.70042549  0.58359756    -0.80600
O2558       O  0.77768110  0.70685851  0.63933163    -0.90900
C2559       C  0.75657552  0.64128504  0.51916253     0.83000
O2560       O  0.71337973  0.70927986  0.63979661    -0.69100
O2561       O  0.67770155  0.72298785  0.48777734    -0.88400
C2562       C  0.71468350  0.68218031  0.62580757     0.83900
C2563       C  0.79697505  0.69580738  0.61656631     1.05400
H2564       H  0.69777555  0.68056568  0.55762135     0.37200
O2565       O  0.71108015  0.69585384  0.54575253    -1.11000
O2566       O  0.72483256  0.75579386  0.52215567    -0.67700
Ni2567     Ni  0.70184623  0.73742615  0.56326790     1.26300
O2568       O  0.73623789  0.67381331  0.60391060    -0.67900
O2569       O  0.66038381  0.73661759  0.54135795    -0.80200
C2570       C  0.69503323  0.78476166  0.61848389     0.83200
O2571       O  0.69245610  0.77805792  0.58492501    -0.67400
Ni2572     Ni  0.70784104  0.68825400  0.49530892     1.27400
Ni2573     Ni  0.75331390  0.69750710  0.56429776     1.26100
H2574       H  0.75607123  0.75335630  0.57523499     0.37800
O2575       O  0.65913372  0.82627872  0.61431001    -0.82200
O2576       O  0.54608910  0.87773406  0.70864869    -0.66900
O2577       O  0.62500553  0.85458888  0.66909993    -1.13500
C2578       C  0.61849214  0.76695312  0.74514233     1.04700
O2579       O  0.53839067  0.84691861  0.75623805    -0.80100
O2580       O  0.60267393  0.85635179  0.76260423    -0.67700
Ni2581     Ni  0.62720682  0.85779215  0.61790072     1.34900
C2582       C  0.63010407  0.85968139  0.74908826     0.83400
O2583       O  0.58851558  0.90610708  0.67017431    -0.80600
O2584       O  0.59481237  0.88968904  0.61444160    -0.90900
C2585       C  0.52942308  0.86870331  0.73470781     0.83000
O2586       O  0.59721962  0.82539297  0.61404214    -0.69100
O2587       O  0.61114079  0.78982195  0.76606349    -0.88400
C2588       C  0.57013522  0.82672886  0.62806834     0.83900
C2589       C  0.58380082  0.90899186  0.63722260     1.05400
H2590       H  0.56865983  0.80986745  0.69626142     0.37200
O2591       O  0.58396077  0.82318049  0.70809771    -1.11000
O2592       O  0.64394744  0.83695411  0.73158624    -0.67700
Ni2593     Ni  0.62551363  0.81393630  0.69052669     1.26300
O2594       O  0.56181833  0.84829561  0.64997195    -0.67900
O2595       O  0.62474010  0.77249810  0.71247325    -0.80200
C2596       C  0.67275540  0.80706008  0.63522574     0.83200
O2597       O  0.66611530  0.80453531  0.66880596    -0.67400
Ni2598     Ni  0.57640970  0.81997339  0.75854724     1.27400
Ni2599     Ni  0.58559786  0.86539613  0.68951255     1.26100
H2600       H  0.64142727  0.86813899  0.67846542     0.37800
O2601       O  0.81185389  0.97901967  0.63959294    -0.82200
O2602       O  0.76053778  0.59204336  0.54524187    -0.66900
O2603       O  0.78359937  0.51314122  0.58479631    -1.13500
C2604       C  0.87124466  0.51951556  0.50875143     1.04700
O2605       O  0.79132348  0.59968593  0.49761756    -0.80100
O2606       O  0.78186710  0.53538725  0.49125170    -0.67700
Ni2607     Ni  0.78039613  0.51098650  0.63599970     1.34900
C2608       C  0.77853787  0.00795098  0.50475265     0.83400
O2609       O  0.73212254  0.54967897  0.58372485    -0.80600
O2610       O  0.74854435  0.54342935  0.63945719    -0.90900
C2611       C  0.76956546  0.60868603  0.51916986     0.83000
O2612       O  0.81284325  0.54092735  0.63985546    -0.69100
O2613       O  0.84839239  0.52690066  0.48782064    -0.88400
C2614       C  0.81151626  0.56801696  0.62584718     0.83900
C2615       C  0.72923639  0.55442062  0.61667088     1.05400
H2616       H  0.82838102  0.56941330  0.55760111     0.37200
O2617       O  0.81504777  0.55412456  0.54577313    -1.11000
O2618       O  0.80124000  0.99412574  0.52231096    -0.67700
Ni2619     Ni  0.82424943  0.51257820  0.56336334     1.26300
O2620       O  0.78998186  0.57632973  0.60389748    -0.67900
O2621       O  0.86568928  0.51329383  0.54142358    -0.80200
C2622       C  0.83105235  0.96536920  0.61867949     0.83200
O2623       O  0.83359409  0.97198827  0.58509971    -0.67400
Ni2624     Ni  0.81825302  0.56164857  0.49532142     1.27400
Ni2625     Ni  0.77283647  0.55254217  0.56437790     1.26100
H2626       H  0.77003029  0.49673280  0.57543588     0.37800
O2627       O  0.86693603  0.92387176  0.61451086    -0.82200
O2628       O  0.98014834  0.87264353  0.70867284    -0.66900
O2629       O  0.90116395  0.89566651  0.66924828    -1.13500
C2630       C  0.90766462  0.98337227  0.74520051     1.04700
O2631       O  0.98785143  0.90347200  0.75625340    -0.80100
O2632       O  0.92357969  0.89400041  0.76273432    -0.67700
Ni2633     Ni  0.89889684  0.89240901  0.61805615     1.34900
C2634       C  0.89614052  0.89065078  0.74925025     0.83400
O2635       O  0.93772277  0.84417931  0.67028433    -0.80600
O2636       O  0.93131372  0.86054167  0.61454749    -0.90900
C2637       C  0.99682274  0.88169286  0.73471524     0.83000
O2638       O  0.92884717  0.92483741  0.61407948    -0.69100
O2639       O  0.91506812  0.96052453  0.76612632    -0.88400
C2640       C  0.95595479  0.92352884  0.62805123     0.83900
C2641       C  0.94236240  0.84125461  0.63731898     1.05400
H2642       H  0.95749571  0.94046362  0.69627520     0.37200
O2643       O  0.94222068  0.92714554  0.70814867    -1.11000
O2644       O  0.88227414  0.91336408  0.73175251    -0.67700
Ni2645     Ni  0.90064512  0.93634236  0.69063621     1.26300
O2646       O  0.96430826  0.90200749  0.64999359    -0.67900
O2647       O  0.90140661  0.97780536  0.71253802    -0.80200
C2648       C  0.85333217  0.94310083  0.63542476     0.83200
O2649       O  0.86001314  0.94568023  0.66898521    -0.67400
Ni2650     Ni  0.94981595  0.93039434  0.75858932     1.27400
Ni2651     Ni  0.94060592  0.88491458  0.68959332     1.26100
H2652       H  0.88476842  0.88211024  0.67866097     0.37800
O2653       O  0.48482830  0.84968695  0.49764417    -0.82200
O2654       O  0.94255368  0.72199018  0.58511097    -0.66900
O2655       O  0.96110082  0.80412587  0.54579524    -1.13500
C2656       C  0.54691156  0.80441655  0.61669202     1.04700
O2657       O  0.96429560  0.72901484  0.63960483    -0.80100
O2658       O  0.96330470  0.79092260  0.63987745    -0.67700
Ni2659     Ni  0.95789610  0.81165232  0.49534450     1.34900
C2660       C  0.96463251  0.81801217  0.62586916     0.83400
O2661       O  0.91045573  0.76329958  0.54144191    -0.80600
O2662       O  0.92775506  0.77690757  0.48784063    -0.90900
C2663       C  0.94509804  0.71536695  0.61868881     0.83000
O2664       O  0.99428049  0.78538827  0.49127111    -0.69100
O2665       O  0.52760387  0.79342626  0.63947963    -0.88400
C2666       C  0.99760786  0.75795067  0.50476761     0.83900
C2667       C  0.90490113  0.76952437  0.50876997     1.05400
H2668       H  0.00611589  0.74672969  0.57545226     0.37200
O2669       O  0.99254752  0.76313860  0.58481444    -1.11000
O2670       O  0.98616822  0.82632458  0.60392098    -0.67700
Ni2671     Ni  0.00331220  0.80253890  0.56439933     1.26300
O2672       O  0.97490535  0.74412727  0.52232676    -0.67900
O2673       O  0.54402556  0.79967156  0.58374676    -0.80200
C2674       C  0.50658659  0.85868445  0.51919642     0.83200
O2675       O  0.51561361  0.84204077  0.54526759    -0.67400
Ni2676     Ni  0.99575231  0.76098187  0.63601795     1.27400
Ni2677     Ni  0.95189722  0.76257968  0.56338130     1.26100
H2678       H  0.94776806  0.81941471  0.55762469     0.37800
O2679       O  0.78830356  0.65346169  0.75624734    -0.82200
O2680       O  0.91613619  0.69567705  0.66898784    -0.66900
O2681       O  0.83392985  0.67714189  0.70814373    -1.13500
C2682       C  0.83378650  0.59125835  0.63729999     1.04700
O2683       O  0.90921930  0.67386984  0.61451175    -0.80100
O2684       O  0.84730779  0.67484104  0.61407013    -0.67700
Ni2685     Ni  0.82633468  0.68038752  0.75858527     1.34900
C2686       C  0.82019833  0.67353107  0.62803804     0.83400
O2687       O  0.87474201  0.72780190  0.71253817    -0.80600
O2688       O  0.86107878  0.71052119  0.76612637    -0.90900
C2689       C  0.92282009  0.69309765  0.63542885     0.83000
O2690       O  0.85257398  0.64399589  0.76272984    -0.69100
O2691       O  0.84483750  0.61054650  0.61453138    -0.88400
C2692       C  0.88001362  0.64064879  0.74924603     0.83900
C2693       C  0.86848520  0.73336855  0.74520127     1.05400
H2694       H  0.89138147  0.63210773  0.67865407     0.37200
O2695       O  0.87498710  0.64566499  0.66924104    -1.11000
O2696       O  0.81184464  0.65201148  0.64998263    -0.67700
Ni2697     Ni  0.83554478  0.63491301  0.68958128     1.26300
O2698       O  0.89387748  0.66336240  0.73174767    -0.67900
O2699       O  0.83842661  0.59417942  0.67026568    -0.80200
C2700       C  0.77933138  0.63168785  0.73470360     0.83200
O2701       O  0.79600290  0.62264316  0.70865686    -0.67400
Ni2702     Ni  0.87725664  0.64241039  0.61804848     1.27400
Ni2703     Ni  0.87550467  0.68633977  0.69063351     1.26100
H2704       H  0.81865538  0.69046104  0.69627127     0.37800
O2705       O  0.98787574  0.84627751  0.25628286    -0.82200
O2706       O  0.86003832  0.80407693  0.16901411    -0.66900
O2707       O  0.94224464  0.82260391  0.20817877    -1.13500
C2708       C  0.94238901  0.90849954  0.13735451     1.04700
O2709       O  0.86695577  0.82589525  0.11454401    -0.80100
O2710       O  0.92886368  0.82491716  0.11410735    -0.67700
Ni2711     Ni  0.94983826  0.81935677  0.25861974     1.34900
C2712       C  0.95597382  0.82622271  0.12807160     0.83400
O2713       O  0.90142602  0.77194956  0.21256634    -0.80600
O2714       O  0.91508978  0.78922559  0.26615782    -0.90900
C2715       C  0.85335460  0.80666303  0.13545539     0.83000
O2716       O  0.92360156  0.85575273  0.26276419    -0.69100
O2717       O  0.93134309  0.88921149  0.11458298    -0.88400
C2718       C  0.89616207  0.85910107  0.24927971     0.83900
C2719       C  0.90767590  0.76638160  0.24523026     1.05400
H2720       H  0.88479534  0.86764463  0.17869614     0.37200
O2721       O  0.90118956  0.85408761  0.16928142    -1.11000
O2722       O  0.96433123  0.84773741  0.15002161    -0.67700
Ni2723     Ni  0.94063191  0.86483476  0.18962399     1.26300
O2724       O  0.88229771  0.83638639  0.23178305    -0.67900
O2725       O  0.93775179  0.90557206  0.17031967    -0.80200
C2726       C  0.99684774  0.86805384  0.23474155     0.83200
O2727       O  0.98017375  0.87710171  0.20869946    -0.67400
Ni2728     Ni  0.89892095  0.85735073  0.11809076     1.27400
Ni2729     Ni  0.90066927  0.81341109  0.19066577     1.26100
H2730       H  0.95751915  0.80928512  0.19630503     0.37800
O2731       O  0.79134729  0.65008373  0.99765780    -0.82200
O2732       O  0.83361728  0.77777986  0.08512945    -0.66900
O2733       O  0.81507026  0.69564431  0.04581097    -1.13500
C2734       C  0.72924904  0.69535766  0.11669731     1.04700
O2735       O  0.81187147  0.77075302  0.13962181    -0.80100
O2736       O  0.81284313  0.70884453  0.13990985    -0.67700
Ni2737     Ni  0.81827793  0.68811799  0.99535892     1.34900
C2738       C  0.81151656  0.68175536  0.12589954     0.83400
O2739       O  0.86571498  0.73647412  0.04145227    -0.80600
O2740       O  0.84841756  0.72286412  0.98785058    -0.90900
C2741       C  0.83107332  0.78439932  0.11870897     0.83000
O2742       O  0.78189365  0.71438074  0.99128257    -0.69100
O2743       O  0.74854629  0.70635717  0.13949035    -0.88400
C2744       C  0.77856397  0.74181820  0.00477894     0.83900
C2745       C  0.87126965  0.73025614  0.00877791     1.05400
H2746       H  0.77005407  0.75303963  0.07546399     0.37200
O2747       O  0.78362144  0.73663145  0.08482887    -1.11000
O2748       O  0.78999098  0.67344653  0.10393777    -0.67700
Ni2749     Ni  0.77285703  0.69723204  0.06441213     1.26300
O2750       O  0.80126402  0.75564268  0.02234139    -0.67900
O2751       O  0.73214182  0.70010199  0.08375263    -0.80200
C2752       C  0.76958755  0.64108635  0.01920843     0.83200
O2753       O  0.76055766  0.65773052  0.04527852    -0.67400
Ni2754     Ni  0.78040576  0.73879416  0.13603213     1.27400
Ni2755     Ni  0.82427330  0.73719088  0.06339596     1.26100
H2756       H  0.82840037  0.68035520  0.05764376     0.37800
O2757       O  0.96428747  0.52074773  0.13963628    -0.82200
O2758       O  0.51562250  0.90773988  0.04528517    -0.66900
O2759       O  0.99254537  0.98663225  0.08484433    -1.13500
C2760       C  0.90490985  0.98025815  0.00877354     1.04700
O2761       O  0.48484029  0.90009613  0.99765838    -0.80100
O2762       O  0.99429017  0.96439149  0.99129759    -0.67700
Ni2763     Ni  0.99575447  0.98878875  0.13604773     1.34900
C2764       C  0.99761687  0.49182665  0.00480052     0.83400
O2765       O  0.54402938  0.95010648  0.08377152    -0.80600
O2766       O  0.52761511  0.95635146  0.13950708    -0.90900
C2767       C  0.50659804  0.89109883  0.01921071     0.83000
O2768       O  0.96331807  0.95883750  0.13991473    -0.69100
O2769       O  0.92776695  0.97287241  0.98785004    -0.88400
C2770       C  0.96464954  0.93174941  0.12590193     0.83900
C2771       C  0.54691738  0.94535648  0.11671562     1.05400
H2772       H  0.94777575  0.93035605  0.05764243     0.37200
O2773       O  0.96110595  0.94564758  0.04581433    -1.11000
O2774       O  0.97491213  0.50564913  0.02235765    -0.67700
Ni2775     Ni  0.95189635  0.98719140  0.06340403     1.26300
O2776       O  0.98617874  0.92344443  0.10394203    -0.67900
O2777       O  0.91045826  0.98647380  0.04145015    -0.80200
C2778       C  0.94508869  0.53439687  0.11872194     0.83200
O2779       O  0.94254651  0.52777795  0.08514198    -0.67400
Ni2780     Ni  0.95790713  0.93812728  0.99535990     1.27400
Ni2781     Ni  0.00331662  0.94723648  0.06442305     1.26100
H2782       H  0.00611275  0.00304261  0.07548482     0.37800
O2783       O  0.90921716  0.57590367  0.11455494    -0.82200
O2784       O  0.79597846  0.62710582  0.20869227    -0.66900
O2785       O  0.87497117  0.60409316  0.16928800    -1.13500
C2786       C  0.86846629  0.51638116  0.24522431     1.04700
O2787       O  0.78826874  0.59627756  0.25627159    -0.80100
O2788       O  0.85253898  0.60575121  0.26276574    -0.67700
Ni2789     Ni  0.87725251  0.60736121  0.11809797     1.34900
C2790       C  0.87997972  0.60909970  0.24928483     0.83400
O2791       O  0.83840831  0.65557902  0.17032275    -0.80600
O2792       O  0.84483158  0.63922298  0.11458594    -0.90900
C2793       C  0.77930101  0.61805635  0.23473161     0.83000
O2794       O  0.84731118  0.57492843  0.11410524    -0.69100
O2795       O  0.86105189  0.53922464  0.26615236    -0.88400
C2796       C  0.82020048  0.57622920  0.12806930     0.83900
C2797       C  0.83377849  0.65850838  0.13735643     1.05400
H2798       H  0.81863309  0.55929111  0.19629553     0.37200
O2799       O  0.83390642  0.57260801  0.20817287    -1.11000
O2800       O  0.89384733  0.58638433  0.23179152    -0.67700
Ni2801     Ni  0.87548405  0.56341387  0.19066684     1.26300
O2802       O  0.81183578  0.59774678  0.15001239    -0.67900
O2803       O  0.87472006  0.52195021  0.21256160    -0.80200
C2804       C  0.92280926  0.55666499  0.13546642     0.83200
O2805       O  0.91611847  0.55407725  0.16902328    -0.67400
Ni2806     Ni  0.82630442  0.56935592  0.25861217     1.27400
Ni2807     Ni  0.83552438  0.61484027  0.18962312     1.26100
H2808       H  0.89136409  0.61764798  0.17870858     0.37800
O2809       O  0.53841612  0.90283011  0.25625584    -0.82200
O2810       O  0.66611938  0.94522221  0.16879144    -0.66900
O2811       O  0.58397319  0.92657146  0.20810050    -1.13500
C2812       C  0.58381022  0.84076223  0.13722626     1.04700
O2813       O  0.65913610  0.92348017  0.11429547    -0.80100
O2814       O  0.59722111  0.92437045  0.11405166    -0.67700
Ni2815     Ni  0.57643409  0.92977521  0.25855226     1.34900
C2816       C  0.57013890  0.92303574  0.12808329     0.83400
O2817       O  0.62474485  0.97725518  0.21246084    -0.80600
O2818       O  0.61116638  0.95992404  0.26605307    -0.90900
C2819       C  0.67275920  0.94269816  0.13521147     0.83000
O2820       O  0.60269891  0.89339602  0.26259379    -0.69100
O2821       O  0.59481189  0.86007101  0.11444546    -0.88400
C2822       C  0.63012589  0.89006819  0.24906931     0.83900
C2823       C  0.61849773  0.98279695  0.24513003     1.05400
H2824       H  0.64144028  0.88161669  0.17845272     0.37200
O2825       O  0.62501524  0.89516610  0.16909291    -1.11000
O2826       O  0.56182325  0.90146246  0.14998006    -0.67700
Ni2827     Ni  0.58561077  0.88435737  0.18951489     1.26300
O2828       O  0.64396568  0.91279984  0.23157176    -0.67900
O2829       O  0.58852807  0.84364587  0.17017718    -0.80200
C2830       C  0.52944674  0.88104459  0.23472804     0.83200
O2831       O  0.54610710  0.87201732  0.20866219    -0.67400
Ni2832     Ni  0.62720697  0.89196767  0.11789424     1.27400
Ni2833     Ni  0.62552213  0.93581771  0.19051804     1.26100
H2834       H  0.56866846  0.93988451  0.19627097     0.37800
O2835       O  0.73479964  0.59954367  0.99767149    -0.82200
O2836       O  0.69247242  0.97170407  0.08491770    -0.66900
O2837       O  0.71110081  0.55391877  0.04577516    -1.13500
C2838       C  0.79698969  0.55394466  0.11659105     1.04700
O2839       O  0.71429452  0.97856792  0.13939113    -0.80100
O2840       O  0.71339883  0.54047786  0.13981171    -0.67700
Ni2841     Ni  0.70785518  0.56153212  0.99533476     1.34900
C2842       C  0.71470531  0.56757760  0.12582227     0.83400
O2843       O  0.66040365  0.51315884  0.04137558    -0.80600
O2844       O  0.67770997  0.52680431  0.98779524    -0.90900
C2845       C  0.69504168  0.96499584  0.11847560     0.83000
O2846       O  0.74424300  0.53529310  0.99120778    -0.69100
O2847       O  0.77769934  0.54288221  0.13935275    -0.88400
C2848       C  0.74758813  0.00786278  0.00470933     0.83900
C2849       C  0.65484639  0.51943857  0.00871678     1.05400
H2850       H  0.75608918  0.49640605  0.07523836     0.37200
O2851       O  0.74254761  0.51281081  0.08465571    -1.11000
O2852       O  0.73626635  0.57594513  0.10393627    -0.67700
Ni2853     Ni  0.75333527  0.55225821  0.06431773     1.26300
O2854       O  0.72484861  0.99398528  0.02215661    -0.67900
O2855       O  0.79407103  0.54933269  0.08362024    -0.80200
C2856       C  0.75659637  0.60848925  0.01919780     0.83200
O2857       O  0.76563651  0.59180391  0.04524074    -0.67400
Ni2858     Ni  0.74580038  0.51050232  0.13584390     1.27400
Ni2859     Ni  0.70186593  0.51234270  0.06327742     1.26100
H2860       H  0.69779712  0.56920465  0.05764959     0.37800
O2861       O  0.61703572  0.67347715  0.11426183    -0.82200
O2862       O  0.73004479  0.62201841  0.20864851    -0.66900
O2863       O  0.65114694  0.64516811  0.16906488    -1.13500
C2864       C  0.65764588  0.73279483  0.24511634     1.04700
O2865       O  0.73773092  0.65283296  0.25624111    -0.80100
O2866       O  0.67344740  0.64339416  0.26257089    -0.67700
Ni2867     Ni  0.64896633  0.64196663  0.11786528     1.34900
C2868       C  0.64602096  0.64006631  0.24904561     0.83400
O2869       O  0.68763160  0.59364937  0.17015680    -0.80600
O2870       O  0.68136752  0.61007274  0.11442284    -0.90900
C2871       C  0.74670246  0.63104725  0.23471455     0.83000
O2872       O  0.67894806  0.67437148  0.11402749    -0.69100
O2873       O  0.66497445  0.70991910  0.26603615    -0.88400
C2874       C  0.70602739  0.67303857  0.12806493     0.83900
C2875       C  0.69236434  0.59076593  0.13720901     1.05400
H2876       H  0.70748561  0.68988728  0.19625648     0.37200
O2877       O  0.69217963  0.67657330  0.20808324    -1.11000
O2878       O  0.63218336  0.66279559  0.23154156    -0.67700
Ni2879     Ni  0.65063414  0.68581848  0.19049444     1.26300
O2880       O  0.71434040  0.65146740  0.14996581    -0.67900
O2881       O  0.65140387  0.72725601  0.21244450    -0.80200
C2882       C  0.60340983  0.69269483  0.13517683     0.83200
O2883       O  0.61004270  0.69521916  0.16875828    -0.67400
Ni2884     Ni  0.69971063  0.67977452  0.25853594     1.27400
Ni2885     Ni  0.69054591  0.63435993  0.18949492     1.26100
H2886       H  0.63472099  0.63161784  0.17842083     0.37800
O2887       O  0.56187720  0.72856173  0.13935758    -0.82200
O2888       O  0.51055500  0.84181934  0.04524256    -0.66900
O2889       O  0.53363584  0.76281878  0.08463595    -1.13500
C2890       C  0.62133660  0.76944650  0.00869334     1.04700
O2891       O  0.54138348  0.84955813  0.99766508    -0.80100
O2892       O  0.53193928  0.78531028  0.99119510    -0.67700
Ni2893     Ni  0.53037824  0.76049917  0.13582265     1.34900
C2894       C  0.52859541  0.75787962  0.00469523     0.83400
O2895       O  0.98211417  0.79934616  0.08361221    -0.80600
O2896       O  0.49848264  0.79288116  0.13934313    -0.90900
C2897       C  0.51959110  0.85850382  0.01919745     0.83000
O2898       O  0.56278213  0.79047015  0.13980444    -0.69100
O2899       O  0.59847358  0.77681959  0.98777455    -0.88400
C2900       C  0.56147641  0.81757385  0.12582482     0.83900
C2901       C  0.97919236  0.80394824  0.11658486     1.05400
H2902       H  0.57838941  0.81921411  0.05764042     0.37200
O2903       O  0.56508542  0.80393039  0.04576355    -1.11000
O2904       O  0.55133881  0.74400082  0.02213309    -0.67700
Ni2905     Ni  0.57431879  0.76235176  0.06325730     1.26300
O2906       O  0.53992108  0.82594638  0.10393430    -0.67900
O2907       O  0.61578063  0.76316803  0.04135301    -0.80200
C2908       C  0.58113213  0.71499398  0.11844109     0.83200
O2909       O  0.58370896  0.72170988  0.08488632    -0.67400
Ni2910     Ni  0.56832830  0.81154733  0.99532232     1.27400
Ni2911     Ni  0.52285121  0.80227007  0.06430911     1.26100
H2912       H  0.52009359  0.74641700  0.07521404     0.37800
O2913       O  0.73787937  0.90346920  0.74768192    -0.82200
O2914       O  0.61004532  0.94568645  0.83492751    -0.66900
O2915       O  0.69225143  0.92714813  0.79578044    -1.13500
C2916       C  0.69236987  0.84124377  0.86658525     1.04700
O2917       O  0.61694660  0.92385489  0.88939515    -0.80100
O2918       O  0.67885661  0.92482438  0.88984710    -0.67700
Ni2919     Ni  0.69985208  0.93040268  0.74534242     1.34900
C2920       C  0.70596510  0.92351614  0.87587709     0.83400
O2921       O  0.65144709  0.97781979  0.79139314    -0.80600
O2922       O  0.66511439  0.96054722  0.73780165    -0.90900
C2923       C  0.60335270  0.94309119  0.86848216     0.83000
O2924       O  0.67360564  0.89401513  0.74118630    -0.69100
O2925       O  0.68132629  0.86052869  0.88936261    -0.88400
C2926       C  0.64616406  0.89067254  0.75466753     0.83900
C2927       C  0.65770169  0.98339133  0.75872988     1.05400
H2928       H  0.63478478  0.88211967  0.82524493     0.37200
O2929       O  0.65118228  0.89566963  0.83466423    -1.11000
O2930       O  0.71431982  0.90199484  0.85393442    -0.67700
Ni2931     Ni  0.69062193  0.88491272  0.81432515     1.26300
O2932       O  0.63230398  0.91338971  0.77216335    -0.67900
O2933       O  0.68772324  0.84417446  0.83362245    -0.80200
C2934       C  0.74684085  0.88168169  0.76921418     0.83200
O2935       O  0.73016217  0.87263271  0.79525233    -0.67400
Ni2936     Ni  0.64890834  0.89239605  0.88585450     1.27400
Ni2937     Ni  0.65067672  0.93635095  0.81328681     1.26100
H2938       H  0.70752808  0.94046031  0.80765907     0.37800
O2939       O  0.54134596  0.59966101  0.00626909    -0.82200
O2940       O  0.58361853  0.97197321  0.91880108    -0.66900
O2941       O  0.56507358  0.55410407  0.95811684    -1.13500
C2942       C  0.97925668  0.55439550  0.88722490     1.04700
O2943       O  0.56187277  0.97899934  0.86430861    -0.80100
O2944       O  0.56286114  0.54090497  0.86403052    -0.67700
Ni2945     Ni  0.56828454  0.56163060  0.00856725     1.34900
C2946       C  0.56153292  0.56799439  0.87803928     0.83400
O2947       O  0.61572272  0.51327630  0.96246668    -0.80600
O2948       O  0.59843402  0.52688909  0.01607223    -0.90900
C2949       C  0.58107242  0.96535300  0.88522346     0.83000
O2950       O  0.53190371  0.53536399  0.01264732    -0.69100
O2951       O  0.49856298  0.54340737  0.86443638    -0.88400
C2952       C  0.52857387  0.00792956  0.99914567     0.83900
C2953       C  0.62128264  0.51949281  0.99513996     1.05400
H2954       H  0.52006050  0.49670767  0.92846047     0.37200
O2955       O  0.53362656  0.51311785  0.91909795    -1.11000
O2956       O  0.54000074  0.57630437  0.89999423    -0.67700
Ni2957     Ni  0.52285946  0.55251423  0.93951530     1.26300
O2958       O  0.55127580  0.99410667  0.98158557    -0.67900
O2959       O  0.98214432  0.54964491  0.92016907    -0.80200
C2960       C  0.51958092  0.60865349  0.98472219     0.83200
O2961       O  0.51055318  0.59200919  0.95865280    -0.67400
Ni2962     Ni  0.53041564  0.51096360  0.86789502     1.27400
Ni2963     Ni  0.57427861  0.51255986  0.94052938     1.26100
H2964       H  0.57840408  0.56939352  0.94628536     0.37800
O2965       O  0.78838449  0.84687082  0.74771183    -0.82200
O2966       O  0.91612547  0.80451515  0.83511662    -0.66900
O2967       O  0.83396831  0.82315364  0.79583542    -1.13500
C2968       C  0.83381721  0.90897353  0.86668919     1.04700
O2969       O  0.90913435  0.82624732  0.88961795    -0.80100
O2970       O  0.84722018  0.82537004  0.88987382    -0.67700
Ni2971     Ni  0.82640753  0.81993457  0.74539088     1.34900
C2972       C  0.82013903  0.82670853  0.87584064     0.83400
O2973       O  0.87475142  0.77247296  0.79145484    -0.80600
O2974       O  0.86114670  0.78979539  0.73786657    -0.90900
C2975       C  0.92276099  0.80703393  0.86869850     0.83000
O2976       O  0.85266083  0.85631749  0.74132131    -0.69100
O2977       O  0.84482034  0.88966942  0.88947464    -0.88400
C2978       C  0.88009109  0.85965518  0.75483319     0.83900
C2979       C  0.86850884  0.76692892  0.75878467     1.05400
H2980       H  0.89144236  0.86810940  0.82546327     0.37200
O2981       O  0.87501686  0.85456262  0.83482659    -1.11000
O2982       O  0.81182604  0.84828506  0.85394779    -0.67700
Ni2983     Ni  0.83561501  0.86537524  0.81440800     1.26300
O2984       O  0.89394346  0.83693281  0.77233549    -0.67900
O2985       O  0.83854334  0.90608795  0.83373968    -0.80200
C2986       C  0.77943548  0.86867973  0.76922077     0.83200
O2987       O  0.79611455  0.87772642  0.79526157    -0.67400
Ni2988     Ni  0.87721140  0.85776636  0.88602475     1.27400
Ni2989     Ni  0.87552203  0.81391123  0.81340072     1.26100
H2990       H  0.81866857  0.80984326  0.80767678     0.37800
O2991       O  0.48477624  0.65018754  0.00624757    -0.82200
O2992       O  0.94246080  0.77802338  0.91899180    -0.66900
O2993       O  0.96108353  0.69581168  0.95813911    -1.13500
C2994       C  0.54698685  0.69578817  0.88734375     1.04700
O2995       O  0.96429774  0.77116424  0.86452373    -0.80100
O2996       O  0.96339361  0.70925672  0.86410458    -0.67700
Ni2997     Ni  0.95783402  0.68820122  0.00857936     1.34900
C2998       C  0.96469749  0.68215618  0.87809131     0.83400
O2999       O  0.91038609  0.73657273  0.96253384    -0.80600
O3000       O  0.92769372  0.72293373  0.01611587    -0.90900
C3001       C  0.94503936  0.78473413  0.88543542     0.83000
O3002       O  0.99422398  0.71443695  0.01270272    -0.69100
O3003       O  0.52769524  0.70684253  0.86457838    -0.88400
C3004       C  0.99756853  0.74186655  0.99919940     0.83900
C3005       C  0.90483055  0.73030075  0.99519527     1.05400
H3006       H  0.00607355  0.75332591  0.92868088     0.37200
O3007       O  0.99253448  0.73691979  0.91926268    -1.11000
O3008       O  0.98625523  0.67378667  0.89998211    -0.67700
Ni3009     Ni  0.00332124  0.69747483  0.93960420     1.26300
O3010       O  0.97482617  0.75574387  0.98175764    -0.67900
O3011       O  0.54406154  0.70040255  0.92031309    -0.80200
C3012       C  0.50658264  0.64124718  0.98473034     0.83200
O3013       O  0.51562547  0.65793333  0.95868952    -0.67400
Ni3014     Ni  0.99579814  0.73922654  0.86807662     1.27400
Ni3015     Ni  0.95184980  0.73738666  0.94063394     1.26100
H3016       H  0.94778219  0.68052457  0.94626357     0.37800
O3017       O  0.86703233  0.57625130  0.88961534    -0.82200
O3018       O  0.98005632  0.62771490  0.79526047    -0.66900
O3019       O  0.90115212  0.60456549  0.83482530    -1.13500
C3020       C  0.90764627  0.51693241  0.75878120     1.04700
O3021       O  0.98777246  0.59687132  0.74769700    -0.80100
O3022       O  0.92349644  0.60631926  0.74131639    -0.67700
Ni3023     Ni  0.89895577  0.60776841  0.88602375     1.34900
C3024       C  0.89606659  0.60965599  0.75483001     0.83400
O3025       O  0.93763677  0.65608528  0.83374352    -0.80600
O3026       O  0.93134804  0.63966848  0.88947759    -0.90900
C3027       C  0.99672833  0.61867242  0.76921183     0.83000
O3028       O  0.92894690  0.57537142  0.88988029    -0.69100
O3029       O  0.91500941  0.53979753  0.73786173    -0.88400
C3030       C  0.95603054  0.57670911  0.87585231     0.83900
C3031       C  0.94235739  0.65897055  0.86669431     1.05400
H3032       H  0.95749366  0.55984005  0.80766987     0.37200
O3033       O  0.94219475  0.57315275  0.79582975    -1.11000
O3034       O  0.88221687  0.58693432  0.77233471    -0.67700
Ni3035     Ni  0.90064163  0.56391446  0.81339777     1.26300
O3036       O  0.96434306  0.59827632  0.85394692    -0.67900
O3037       O  0.90140767  0.52247701  0.79145209    -0.80200
C3038       C  0.85340592  0.55703882  0.86869580     0.83200
O3039       O  0.86003910  0.55452221  0.83511363    -0.67400
Ni3040     Ni  0.94974963  0.56993575  0.74538250     1.27400
Ni3041     Ni  0.94055553  0.61537236  0.81440802     1.35700
H3042       H  0.88472914  0.61811521  0.82546130     0.37800
O3043       O  0.81187546  0.52116555  0.86451961    -0.82200
O3044       O  0.76054971  0.90793189  0.95867483    -0.66900
O3045       O  0.78364391  0.98691982  0.91925709    -1.13500
C3046       C  0.87135031  0.98029547  0.99518527     1.04700
O3047       O  0.79141980  0.90016674  0.00621044    -0.80100
O3048       O  0.78196062  0.96441570  0.01269287    -0.67700
Ni3049     Ni  0.78037441  0.98923018  0.86807179     1.34900
C3050       C  0.77861413  0.49184906  0.99919916     0.83400
O3051       O  0.73211495  0.95041153  0.92031176    -0.80600
O3052       O  0.74847475  0.95684865  0.86457390    -0.90900
C3053       C  0.76960376  0.89123520  0.98470178     0.83000
O3054       O  0.81277772  0.95925880  0.86409256    -0.69100
O3055       O  0.84848762  0.97292015  0.01610279    -0.88400
C3056       C  0.81147408  0.93215854  0.87807999     0.83900
C3057       C  0.72918542  0.94579606  0.88734334     1.05400
H3058       H  0.82839832  0.93052100  0.94623872     0.37200
O3059       O  0.81509856  0.94580570  0.95812041    -1.11000
O3060       O  0.80135306  0.50573076  0.98175501    -0.67700
Ni3061     Ni  0.82432948  0.98738381  0.94062494     1.26300
O3062       O  0.78991395  0.92378896  0.89996742    -0.67900
O3063       O  0.86579506  0.98656955  0.96252387    -0.80200
C3064       C  0.83113195  0.53473628  0.88543220     0.83200
O3065       O  0.83371334  0.52802338  0.91898792    -0.67400
Ni3066     Ni  0.81835390  0.93818449  0.00855666     1.27400
Ni3067     Ni  0.77285699  0.94747484  0.93959555     1.26100
H3068       H  0.77010611  0.00332596  0.92867880     0.37800
O3069       O  0.65922941  0.67384918  0.88936524    -0.82200
O3070       O  0.54599732  0.62262829  0.79524790    -0.66900
O3071       O  0.62498351  0.64566077  0.83464357    -1.13500
C3072       C  0.61845127  0.73338898  0.75871908     1.04700
O3073       O  0.53828527  0.65345356  0.74766591    -0.80100
O3074       O  0.60255714  0.64401166  0.74116619    -0.67700
Ni3075     Ni  0.62726767  0.64239049  0.88583356     1.34900
C3076       C  0.62999752  0.64067088  0.75464948     0.83400
O3077       O  0.58843478  0.59416595  0.83361822    -0.80600
O3078       O  0.59485180  0.61052463  0.88935417    -0.90900
C3079       C  0.52932205  0.63167182  0.76920462     0.83000
O3080       O  0.59731817  0.67481826  0.88983231    -0.69100
O3081       O  0.61103701  0.71054801  0.73778691    -0.88400
C3082       C  0.57020659  0.67350948  0.87587012     0.83900
C3083       C  0.58379983  0.59123855  0.86658445     1.05400
H3084       H  0.56863229  0.69045059  0.80764578     0.37200
O3085       O  0.58390892  0.67713847  0.79576598    -1.11000
O3086       O  0.64385599  0.66339035  0.77214066    -0.67700
Ni3087     Ni  0.62548374  0.68634379  0.81326805     1.26300
O3088       O  0.56184839  0.65198988  0.85392728    -0.67900
O3089       O  0.62470670  0.72781345  0.79138056    -0.80200
C3090       C  0.67281677  0.69308766  0.86844974     0.83200
O3091       O  0.66611725  0.69568281  0.83489779    -0.67400
Ni3092     Ni  0.57630603  0.68039489  0.74532752     1.27400
Ni3093     Ni  0.58553956  0.63490406  0.81431439     1.26100
H3094       H  0.64137962  0.63211121  0.82521991     0.37800
O3095       O  0.71428973  0.72900399  0.86426657    -0.82200
O3096       O  0.76563586  0.84199328  0.95862596    -0.66900
O3097       O  0.74254640  0.76311044  0.91905872    -1.13500
C3098       C  0.65489901  0.76949028  0.99511194     1.04700
O3099       O  0.73483044  0.84965548  0.00622989    -0.80100
O3100       O  0.74427801  0.78535887  0.01260876    -0.67700
Ni3101     Ni  0.74575180  0.76096554  0.86785493     1.34900
C3102       C  0.74760803  0.75792231  0.99911032     0.83400
O3103       O  0.79403139  0.79962179  0.92013817    -0.80600
O3104       O  0.77760899  0.79340663  0.86440257    -0.90900
C3105       C  0.75660302  0.85864232  0.98468986     0.83000
O3106       O  0.71330831  0.79091127  0.86400548    -0.69100
O3107       O  0.67775101  0.77688131  0.01604038    -0.88400
C3108       C  0.71464111  0.81799727  0.87802214     0.83900
C3109       C  0.79691694  0.80438619  0.88719706     1.05400
H3110       H  0.69777498  0.81938786  0.94625377     0.37200
O3111       O  0.71110497  0.80409735  0.95808371    -1.11000
O3112       O  0.72490814  0.74409880  0.98154715    -0.67700
Ni3113     Ni  0.70189801  0.76255370  0.94049594     1.26300
O3114       O  0.73618207  0.82630126  0.89996771    -0.67900
O3115       O  0.66045543  0.76327101  0.96243847    -0.80200
C3116       C  0.69509696  0.71535184  0.88518574     0.83200
O3117       O  0.69255717  0.72196777  0.91876525    -0.67400
Ni3118     Ni  0.70789567  0.81162427  0.00853261     1.27400
Ni3119     Ni  0.75331921  0.80250174  0.93948316     1.26100
H3120       H  0.75611168  0.74669696  0.92841554     0.37800
O3121       O  0.56186816  0.77075862  0.36426104    -0.82200
O3122       O  0.51053170  0.65776796  0.45861947    -0.66900
O3123       O  0.53361841  0.73664928  0.41905449    -1.13500
C3124       C  0.62126972  0.73027775  0.49510957     1.04700
O3125       O  0.54132816  0.65011292  0.50623192    -0.80100
O3126       O  0.53189062  0.71440963  0.51260619    -0.67700
Ni3127     Ni  0.53039967  0.73880263  0.36785147     1.34900
C3128       C  0.52856316  0.74184467  0.49910394     0.83400
O3129       O  0.98213067  0.70013684  0.42013689    -0.80600
O3130       O  0.49853766  0.70636468  0.36439911    -0.90900
C3131       C  0.51955988  0.64112357  0.48468834     0.83000
O3132       O  0.56283468  0.70885146  0.36397886    -0.69100
O3133       O  0.59841974  0.72287910  0.51603818    -0.88400
C3134       C  0.56150460  0.68176510  0.37799459     0.83900
C3135       C  0.97923941  0.69537428  0.38719587     1.05400
H3136       H  0.57838660  0.68036905  0.44624562     0.37200
O3137       O  0.56505992  0.69566176  0.45807753    -1.11000
O3138       O  0.55126454  0.75566399  0.48153935    -0.67700
Ni3139     Ni  0.57427011  0.73720331  0.44048827     1.26300
O3140       O  0.53997609  0.67346209  0.39995662    -0.67900
O3141       O  0.61571321  0.73648606  0.46243291    -0.80200
C3142       C  0.58107004  0.78440377  0.38517542     0.83200
O3143       O  0.58361499  0.77778639  0.41875400    -0.67400
Ni3144     Ni  0.56826916  0.68813961  0.50852920     1.27400
Ni3145     Ni  0.52284511  0.69725870  0.43947791     1.26100
H3146       H  0.52005500  0.75306201  0.42841632     0.37800
O3147       O  0.61693693  0.82590762  0.38934670    -0.82200
O3148       O  0.73017628  0.87711032  0.29523156    -0.66900
O3149       O  0.65118912  0.85408208  0.33462314    -1.13500
C3150       C  0.65770957  0.76635644  0.25869827     1.04700
O3151       O  0.73789752  0.84627820  0.24765757    -0.80100
O3152       O  0.67362595  0.85573137  0.24115348    -0.67700
Ni3153     Ni  0.64889960  0.85736485  0.38581096     1.34900
C3154       C  0.64618438  0.85907379  0.25463460     0.83400
O3155       O  0.68773382  0.90557709  0.33358563    -0.80600
O3156       O  0.68131736  0.88923048  0.38932529    -0.90900
C3157       C  0.74685619  0.86806412  0.26919349     0.83000
O3158       O  0.67884473  0.82493658  0.38982187    -0.69100
O3159       O  0.66513584  0.78919540  0.23776850    -0.88400
C3160       C  0.70595699  0.82624052  0.37586174     0.83900
C3161       C  0.69236753  0.90851298  0.36655038     1.05400
H3162       H  0.70754200  0.80928841  0.30763514     0.37200
O3163       O  0.69226617  0.82259905  0.29575268    -1.11000
O3164       O  0.63232300  0.83635342  0.27212245    -0.67700
Ni3165     Ni  0.65068923  0.81339798  0.31325197     1.26300
O3166       O  0.71431937  0.84775503  0.35391408    -0.67900
O3167       O  0.65146177  0.77193001  0.29136221    -0.80200
C3168       C  0.60335251  0.80666370  0.36843492     0.83200
O3169       O  0.61005474  0.80406158  0.33488368    -0.67400
Ni3170     Ni  0.69987180  0.81934291  0.24531456     1.27400
Ni3171     Ni  0.69063318  0.86483550  0.31429445     1.26100
H3172       H  0.63479397  0.86763090  0.32519678     0.37800
O3173       O  0.96428224  0.97858394  0.36454178    -0.82200
O3174       O  0.51560386  0.59184053  0.45866526    -0.66900
O3175       O  0.99251978  0.51284204  0.41926713    -1.13500
C3176       C  0.90480625  0.51948214  0.49517771     1.04700
O3177       O  0.48475131  0.59959826  0.50621906    -0.80100
O3178       O  0.99419512  0.53535328  0.51270748    -0.67700
Ni3179     Ni  0.99578411  0.51051849  0.36808134     1.34900
C3180       C  0.99754349  0.00791961  0.49921488     0.83400
O3181       O  0.54404410  0.54935976  0.42030576    -0.80600
O3182       O  0.52768310  0.54289654  0.36457144    -0.90900
C3183       C  0.50655918  0.60853234  0.48470092     0.83000
O3184       O  0.96338172  0.54049177  0.36409403    -0.69100
O3185       O  0.92766281  0.52686076  0.51610255    -0.88400
C3186       C  0.96468369  0.56759402  0.37807815     0.83900
C3187       C  0.54696998  0.55396258  0.38733410     1.05400
H3188       H  0.94776403  0.56924598  0.44624034     0.37200
O3189       O  0.96106467  0.55396280  0.45812313    -1.11000
O3190       O  0.97480493  0.99403843  0.48177063    -0.67700
Ni3191     Ni  0.95183396  0.51238268  0.44063325     1.26300
O3192       O  0.98624446  0.57596832  0.39996129    -0.67900
O3193       O  0.91036836  0.51320383  0.46252047    -0.80200
C3194       C  0.94502470  0.96501987  0.38545810     0.83200
O3195       O  0.94244772  0.97173812  0.41901195    -0.67400
Ni3196     Ni  0.95780694  0.56158865  0.50855989     1.27400
Ni3197     Ni  0.00330384  0.55229330  0.43959393     1.26100
H3198       H  0.00605795  0.49643897  0.42869404     0.37800
O3199       O  0.90911575  0.92350978  0.38964467    -0.82200
O3200       O  0.79611765  0.87202889  0.29526013    -0.66900
O3201       O  0.87500854  0.89519343  0.33484543    -1.13500
C3202       C  0.86850598  0.98282167  0.25880488     1.04700
O3203       O  0.78840329  0.90287112  0.24769650    -0.80100
O3204       O  0.85268100  0.89343006  0.24133717    -0.67700
Ni3205     Ni  0.87719020  0.89199406  0.38604389     1.34900
C3206       C  0.88010833  0.89009598  0.25485752     0.83400
O3207       O  0.83853646  0.84366856  0.33374963    -0.80600
O3208       O  0.84479648  0.86009361  0.38948412    -0.90900
C3209       C  0.77944861  0.88106718  0.26920797     0.83000
O3210       O  0.84720055  0.92439451  0.38988080    -0.69100
O3211       O  0.86116069  0.95995234  0.23788356    -0.88400
C3212       C  0.82012178  0.92305681  0.37584145     0.83900
C3213       C  0.83380210  0.84078553  0.36669732     1.05400
H3214       H  0.81866358  0.93991021  0.30767301     0.37200
O3215       O  0.83396750  0.92659870  0.29583951    -1.11000
O3216       O  0.89395289  0.91282122  0.27236225    -0.67700
Ni3217     Ni  0.87551566  0.93584282  0.31341905     1.26300
O3218       O  0.81181285  0.90147794  0.35394841    -0.67900
O3219       O  0.87474484  0.97727988  0.29147569    -0.80200
C3220       C  0.92274477  0.94272152  0.36872568     0.83200
O3221       O  0.91611196  0.94524069  0.33514396    -0.67400
Ni3222     Ni  0.82642293  0.92981127  0.24539151     1.27400
Ni3223     Ni  0.83561164  0.88438049  0.31441663     1.26100
H3224       H  0.89143671  0.88164617  0.32548804     0.37800
O3225       O  0.73480539  0.90012100  0.50622874    -0.82200
O3226       O  0.69252164  0.52779509  0.41875099    -0.66900
O3227       O  0.71107648  0.94567072  0.45807612    -1.13500
C3228       C  0.79689758  0.94538196  0.38719353     1.04700
O3229       O  0.71426328  0.52075980  0.36425574    -0.80100
O3230       O  0.71329662  0.95885050  0.36398006    -0.67700
Ni3231     Ni  0.70786919  0.93815041  0.50852815     1.34900
C3232       C  0.71462915  0.93176486  0.37799789     0.83400
O3233       O  0.66042501  0.98649720  0.46243571    -0.80600
O3234       O  0.67772538  0.97289456  0.51603848    -0.90900
C3235       C  0.69506568  0.53441001  0.38517149     0.83000
O3236       O  0.74425076  0.96441539  0.51259868    -0.69100
O3237       O  0.77759559  0.95636619  0.36439538    -0.88400
C3238       C  0.74757925  0.49184994  0.49909493     0.83900
C3239       C  0.65487236  0.98028903  0.49511336     1.05400
H3240       H  0.75608015  0.00306949  0.42840585     0.37200
O3241       O  0.74251623  0.98665542  0.41904790    -1.11000
O3242       O  0.73616049  0.92346510  0.39995778    -0.67700
Ni3243     Ni  0.75329133  0.94726716  0.43947515     1.26300
O3244       O  0.72487686  0.50567176  0.48153424    -0.67900
O3245       O  0.79400597  0.95014626  0.42013423    -0.80200
C3246       C  0.75657724  0.89113352  0.48468837     0.83200
O3247       O  0.76560793  0.90777895  0.45862135    -0.67400
Ni3248     Ni  0.74573186  0.98880297  0.36784520     1.27400
Ni3249     Ni  0.70186658  0.98721205  0.44048591     1.26100
H3250       H  0.69774925  0.93037801  0.44624565     0.37800
O3251       O  0.53824481  0.59627866  0.24764870    -0.82200
O3252       O  0.66608735  0.55407292  0.33487907    -0.66900
O3253       O  0.58387635  0.57260409  0.29574654    -1.13500
C3254       C  0.58376663  0.65851611  0.36654370     1.04700
O3255       O  0.65920082  0.57591566  0.38934238    -0.80100
O3256       O  0.59729473  0.57494116  0.38981279    -0.67700
Ni3257     Ni  0.57627200  0.56934373  0.24530922     1.34900
C3258       C  0.57018281  0.57624302  0.37585241     0.83400
O3259       O  0.62468269  0.52193750  0.29136650    -0.80600
O3260       O  0.61100880  0.53919549  0.23776987    -0.90900
C3261       C  0.67278642  0.55667243  0.36843086     0.83000
O3262       O  0.60251783  0.60573156  0.24114145    -0.69100
O3263       O  0.59481844  0.63923424  0.38931768    -0.88400
C3264       C  0.62995987  0.60907484  0.25462045     0.83900
C3265       C  0.61843429  0.51635974  0.25870463     1.05400
H3266       H  0.64134417  0.61764064  0.32518816     0.37200
O3267       O  0.62495012  0.60409106  0.33461553    -1.11000
O3268       O  0.56181879  0.59775774  0.35390594    -0.67700
Ni3269     Ni  0.58550474  0.61484032  0.31428686     1.26300
O3270       O  0.64382018  0.58635769  0.27211480    -0.67900
O3271       O  0.58839891  0.65558160  0.33357837    -0.80200
C3272       C  0.52928273  0.61806285  0.26918573     0.83200
O3273       O  0.54596094  0.62711056  0.29522384    -0.67400
Ni3274     Ni  0.62723750  0.60737146  0.38580411     1.27400
Ni3275     Ni  0.62545313  0.56340660  0.31324776     1.26100
H3276       H  0.56860150  0.55929225  0.30762893     0.37800
O3277       O  0.79138805  0.84961165  0.50622159    -0.82200
O3278       O  0.83370726  0.72175046  0.41902264    -0.66900
O3279       O  0.81508050  0.80397598  0.45813098    -1.13500
C3280       C  0.72917243  0.80396308  0.38734444     1.04700
O3281       O  0.81186593  0.72858944  0.36455498    -0.80100
O3282       O  0.81276156  0.79049851  0.36410217    -0.67700
Ni3283     Ni  0.81833454  0.81160290  0.50856802     1.34900
C3284       C  0.81145701  0.81760159  0.37808426     0.83400
O3285       O  0.86578041  0.76322012  0.46253426    -0.80600
O3286       O  0.84848166  0.77687695  0.51611578    -0.90900
C3287       C  0.83112555  0.71502727  0.38547025     0.83000
O3288       O  0.78194668  0.78536579  0.51271158    -0.69100
O3289       O  0.74846058  0.79289829  0.36458184    -0.88400
C3290       C  0.77860306  0.75793286  0.49921670     0.83900
C3291       C  0.87133982  0.76949607  0.49519298     1.05400
H3292       H  0.77009328  0.74644631  0.42870648     0.37200
O3293       O  0.78362953  0.76285043  0.41927851    -1.11000
O3294       O  0.78989593  0.82597554  0.39996772    -0.67700
Ni3295     Ni  0.77284081  0.80230155  0.43960328     1.26300
O3296       O  0.80134692  0.74405261  0.48177999    -0.67900
O3297       O  0.73209983  0.79936275  0.42031627    -0.80200
C3298       C  0.76957990  0.85854324  0.48470293     0.83200
O3299       O  0.76053636  0.84184925  0.45866909    -0.67400
Ni3300     Ni  0.78036234  0.76052291  0.36809400     1.27400
Ni3301     Ni  0.82431605  0.76239557  0.44064343     1.26100
H3302       H  0.82837901  0.81926051  0.44624727     0.37800
O3303       O  0.98773351  0.65286952  0.24769094    -0.82200
O3304       O  0.86003090  0.69524101  0.33515337    -0.66900
O3305       O  0.94217205  0.67659473  0.29584010    -1.13500
C3306       C  0.94233637  0.59077719  0.36669326     1.04700
O3307       O  0.86702695  0.67350779  0.38965281    -0.80100
O3308       O  0.92894022  0.67438262  0.38988561    -0.67700
Ni3309     Ni  0.94971423  0.67981053  0.24539138     1.34900
C3310       C  0.95601790  0.67304732  0.37584301     0.83400
O3311       O  0.90139717  0.72727955  0.29148226    -0.80600
O3312       O  0.91497588  0.70995185  0.23788855    -0.90900
C3313       C  0.85340073  0.69272369  0.36873614     0.83000
O3314       O  0.92345668  0.64343040  0.24133746    -0.69100
O3315       O  0.93133954  0.61008248  0.38948211    -0.88400
C3316       C  0.89603077  0.64009555  0.25486123     0.83900
C3317       C  0.90763430  0.73282178  0.25881080     1.05400
H3318       H  0.88470226  0.63164406  0.32549020     0.37200
O3319       O  0.90113111  0.64518976  0.33484780    -1.11000
O3320       O  0.96432737  0.65147057  0.35394673    -0.67700
Ni3321     Ni  0.94052735  0.63437558  0.31441476     1.26300
O3322       O  0.88218607  0.66282059  0.27236731    -0.67900
O3323       O  0.93760278  0.59366257  0.33374570    -0.80200
C3324       C  0.99668867  0.63106351  0.26919936     0.83200
O3325       O  0.98002035  0.62202330  0.29525207    -0.67400
Ni3326     Ni  0.89894826  0.64198647  0.38604631     1.27400
Ni3327     Ni  0.90062527  0.68584074  0.31342384     1.26100
H3328       H  0.95747712  0.68990441  0.30767331     0.37800
loop_ 
_geom_bond_atom_site_label_1 
_geom_bond_atom_site_label_2 
_geom_bond_distance 
_geom_bond_site_symmetry_2 
_ccdc_geom_bond_type 
O1           Ni7   1.972       .  S
O1           C22   1.281       .  A
O2         Ni857   1.940   1_545  S
O2           C11   1.291       .  A
O3           Ni7   1.918       .  S
O3          Ni25   1.916       .  S
O3          Ni19   1.917       .  S
O3           H26   0.965       .  S
C4           O21   1.254       .  A
C4         O1677   1.268       .  A
C4          C144   1.426       .  S
O5         Ni856   1.901   1_545  S
O5           C11   1.266       .  A
O6          Ni24   1.872       .  S
O6            C8   1.261       .  A
Ni7          O10   1.964       .  S
Ni7          O12   1.903       .  S
C8           O18   1.275       .  A
C8           C93   1.426       .  S
O9          Ni25   1.935       .  S
O9           C15   1.271       .  A
O10          C15   1.282       .  A
C11          C37   1.472       .  S
O12         C846   1.273       .  A
O13         Ni24   1.926   1_655  S
O13        C1668   1.268       .  A
C14          O20   1.301   1_565  A
C14         O844   1.273       .  A
C14        C3180   1.490   1_465  S
C15         C743   1.507       .  S
H16          O17   0.966       .  S
O17         Ni25   1.897       .  S
O17         Ni19   1.889       .  S
O17         Ni24   1.921       .  S
O18         Ni19   1.928       .  S
Ni19         O23   1.891       .  S
Ni19       O1685   1.871   1_455  S
O20        Ni857   1.977   1_545  S
O21       Ni1683   1.871       .  S
C22          O23   1.262       .  A
C22         C178   1.484       .  S
Ni24        O837   1.901       .  S
Ni25        O834   1.940       .  S
Ni25        O852   1.977       .  S
O27         Ni33   1.972       .  S
O27          C48   1.281       .  A
O28         Ni51   1.940       .  S
O28          C37   1.291       .  A
O29         Ni33   1.918       .  S
O29         Ni51   1.916       .  S
O29         Ni45   1.917       .  S
O29          H52   0.965       .  S
C30          O47   1.254       .  A
C30          O39   1.268       .  A
C30          C66   1.426       .  S
O31         Ni50   1.901       .  S
O31          C37   1.266       .  A
O32         Ni50   1.872       .  S
O32          C34   1.261       .  A
Ni33         O36   1.965       .  S
Ni33         O38   1.903       .  S
C34          O44   1.275       .  A
C34         C119   1.426       .  S
O35         Ni51   1.935       .  S
O35          C41   1.271       .  A
O36          C41   1.282       .  A
O38          C40   1.273       .  A
O39         Ni50   1.926       .  S
C40          O46   1.301       .  A
C40         C580   1.490       .  S
C41        C1263   1.507   1_545  S
H42          O43   0.966       .  S
O43         Ni51   1.896       .  S
O43         Ni45   1.889       .  S
O43         Ni50   1.921       .  S
O44         Ni45   1.928       .  S
Ni45         O49   1.890       .  S
Ni45         O47   1.871       .  S
O46         Ni51   1.977       .  S
C48          O49   1.261       .  A
C48         C204   1.484       .  S
O53         Ni59   1.901       .  S
O53          C74   1.266       .  A
O54         Ni77   1.891       .  S
O54          C63   1.262       .  A
O55         Ni59   1.921       .  S
O55         Ni77   1.889       .  S
O55         Ni71   1.897       .  S
O55          H78   0.966       .  S
C56          O73   1.271       .  A
C56          O65   1.282       .  A
C56         C628   1.507       .  S
O57         Ni76   1.972       .  S
O57          C63   1.281       .  A
O58         Ni76   1.903       .  S
O58          C60   1.273       .  A
Ni59         O62   1.926       .  S
Ni59         O64   1.872       .  S
C60          O70   1.301       .  A
C60         C794   1.490       .  S
O61         Ni77   1.871       .  S
O61          C67   1.254       .  A
O62          C67   1.268       .  A
C63         C115   1.484       .  S
O64          C66   1.261       .  A
O65         Ni76   1.965       .  S
C66          O72   1.275       .  A
C67         C190   1.426       .  S
H68          O69   0.965       .  S
O69         Ni77   1.917       .  S
O69         Ni71   1.916       .  S
O69         Ni76   1.918       .  S
O70         Ni71   1.977       .  S
Ni71         O75   1.940       .  S
Ni71         O73   1.935       .  S
O72         Ni77   1.928       .  S
C74          O75   1.291       .  A
C74         C100   1.472       .  S
O79         Ni85   1.901       .  S
O79         C100   1.266       .  A
O80        Ni103   1.890       .  S
O80          C89   1.261       .  A
O81         Ni85   1.921       .  S
O81        Ni103   1.889       .  S
O81         Ni97   1.896       .  S
O81         H104   0.966       .  S
C82          O99   1.271       .  A
C82          O91   1.282       .  A
C82         C576   1.507       .  S
O83        Ni102   1.972       .  S
O83          C89   1.281       .  A
O84        Ni102   1.903       .  S
O84          C86   1.273       .  A
Ni85         O88   1.926       .  S
Ni85         O90   1.872       .  S
C86          O96   1.301       .  A
C86         C430   1.490       .  S
O87        Ni103   1.871       .  S
O87          C93   1.254       .  A
O88          C93   1.268       .  A
C89        C1805   1.484   1_455  S
O90          C92   1.261       .  A
O91        Ni102   1.965       .  S
C92          O98   1.275       .  A
C92         C160   1.426       .  S
H94          O95   0.965       .  S
O95        Ni103   1.917       .  S
O95         Ni97   1.916       .  S
O95        Ni102   1.918       .  S
O96         Ni97   1.977       .  S
Ni97        O101   1.940       .  S
Ni97         O99   1.935       .  S
O98        Ni103   1.928       .  S
C100        O101   1.291       .  A
O105       Ni943   1.901       .  S
O105        C126   1.266       .  A
O106       Ni129   1.890       .  S
O106        C115   1.261       .  A
O107       Ni111   1.921       .  S
O107       Ni129   1.888       .  S
O107       Ni123   1.896       .  S
O107        H130   0.966   1_545  S
C108        O125   1.271       .  A
C108        O117   1.282       .  A
C108        C680   1.507       .  S
O109       Ni128   1.972       .  S
O109        C115   1.281       .  A
O110       Ni128   1.903       .  S
O110        C944   1.273       .  A
Ni111       O114   1.926       .  S
Ni111       O116   1.872       .  S
Ni111       O937   1.901   1_545  S
C112        O122   1.301       .  A
C112        O942   1.273       .  A
C112       C1574   1.490       .  S
O113       Ni129   1.871       .  S
O113        C119   1.254       .  A
O114        C119   1.268       .  A
O116        C118   1.261       .  A
O117       Ni128   1.965       .  S
C118        O124   1.275       .  A
C118        C186   1.427       .  S
H120        O121   0.965       .  S
O121       Ni129   1.916       .  S
O121       Ni123   1.915       .  S
O121       Ni128   1.917       .  S
O122       Ni955   1.977       .  S
Ni123       O125   1.935       .  S
Ni123       O954   1.977   1_545  S
Ni123       O959   1.939   1_545  S
O124       Ni129   1.929       .  S
C126        O127   1.291       .  A
C126        C152   1.472       .  S
O127       Ni955   1.939       .  S
O131       Ni137   1.901       .  S
O131        C152   1.266       .  A
O132       Ni155   1.890       .  S
O132        C141   1.261       .  A
O133       Ni137   1.921       .  S
O133       Ni155   1.888       .  S
O133       Ni149   1.897       .  S
O133        H156   0.966       .  S
C134        O151   1.271       .  A
C134        O143   1.282       .  A
C134       C1356   1.507       .  S
O135       Ni154   1.972       .  S
O135        C141   1.281       .  A
O136       Ni154   1.903       .  S
O136        C138   1.273       .  A
Ni137       O140   1.926       .  S
Ni137       O142   1.872       .  S
C138        O148   1.301       .  A
C138        C482   1.490       .  S
O139       Ni155   1.871       .  S
O139        C145   1.254       .  A
O140        C145   1.268       .  A
C141       C1753   1.484       .  S
O142        C144   1.261       .  A
O143       Ni154   1.965       .  S
C144        O150   1.275       .  A
C145        C164   1.427       .  S
H146        O147   0.965       .  S
O147       Ni155   1.917       .  S
O147       Ni149   1.916       .  S
O147       Ni154   1.918       .  S
O148       Ni149   1.977       .  S
Ni149       O153   1.940       .  S
Ni149       O151   1.935       .  S
O150       Ni155   1.928       .  S
C152        O153   1.291       .  A
O157      Ni1827   1.972       .  S
O157        C178   1.281   1_655  A
O158       Ni181   1.939       .  S
O158        C167   1.291       .  A
O159       Ni163   1.917       .  S
O159       Ni181   1.915       .  S
O159       Ni175   1.916       .  S
O159        H182   0.965       .  S
C160        O177   1.254       .  A
C160        O169   1.268       .  A
O161       Ni180   1.901       .  S
O161        C167   1.266       .  A
O162       Ni180   1.872       .  S
O162        C164   1.261       .  A
Ni163       O166   1.965       .  S
Ni163       O168   1.903       .  S
Ni163      O1821   1.972       .  S
C164        O174   1.275       .  A
O165       Ni181   1.935       .  S
O165        C171   1.271       .  A
O166        C171   1.282       .  A
C167        C193   1.471       .  S
O168        C170   1.273       .  A
O169      Ni1844   1.927   1_455  S
C170        O176   1.301       .  A
C170       C2296   1.490       .  S
C171        C795   1.507       .  S
H172        O173   0.966       .  S
O173       Ni181   1.896       .  S
O173       Ni175   1.888       .  S
O173       Ni180   1.921       .  S
O174       Ni175   1.929       .  S
Ni175      O1843   1.890       .  S
Ni175      O1841   1.871       .  S
O176       Ni181   1.977       .  S
O177      Ni1839   1.871       .  S
C178        O179   1.261       .  A
O179      Ni1839   1.890       .  S
Ni180      O1833   1.927       .  S
O183       Ni189   1.972       .  S
O183        C204   1.281       .  A
O184       Ni207   1.939       .  S
O184        C193   1.291       .  A
O185       Ni189   1.918       .  S
O185       Ni207   1.915       .  S
O185       Ni201   1.917       .  S
O185        H208   0.965       .  S
C186        O203   1.254       .  A
C186        O195   1.268       .  A
O187       Ni206   1.901       .  S
O187        C193   1.266       .  A
O188       Ni206   1.872       .  S
O188        C190   1.261       .  A
Ni189       O192   1.965       .  S
Ni189       O194   1.903       .  S
C190        O200   1.275       .  A
O191       Ni207   1.935       .  S
O191        C197   1.271       .  A
O192        C197   1.282       .  A
O194        C196   1.273       .  A
O195       Ni206   1.926       .  S
C196        O202   1.301       .  A
C196        C528   1.490       .  S
C197        C483   1.507       .  S
H198        O199   0.966       .  S
O199       Ni207   1.897       .  S
O199       Ni201   1.888       .  S
O199       Ni206   1.921       .  S
O200       Ni201   1.928       .  S
Ni201       O205   1.890       .  S
Ni201       O203   1.871       .  S
O202       Ni207   1.977       .  S
C204        O205   1.261       .  A
O209       Ni215   1.972       .  S
O209        C230   1.281       .  A
O210       Ni233   1.939       .  S
O210        C219   1.291       .  A
O211       Ni215   1.918       .  S
O211       Ni233   1.915       .  S
O211       Ni227   1.917       .  S
O211        H234   0.965       .  S
C212        O229   1.254       .  A
C212        O221   1.268       .  A
C212        C274   1.427       .  S
O213       Ni232   1.901       .  S
O213        C219   1.266       .  A
O214       Ni232   1.872       .  S
O214        C216   1.261       .  A
Ni215       O218   1.965       .  S
Ni215       O220   1.903       .  S
C216        O226   1.275       .  A
C216        C405   1.426       .  S
O217       Ni233   1.935       .  S
O217        C223   1.271       .  A
O218        C223   1.282       .  A
C219        C245   1.471       .  S
O220        C222   1.273       .  A
O221       Ni232   1.926       .  S
C222        O228   1.301       .  A
C222        C710   1.490       .  S
C223        C821   1.507       .  S
H224        O225   0.966       .  S
O225       Ni233   1.897       .  S
O225       Ni227   1.888       .  S
O225       Ni232   1.921       .  S
O226       Ni227   1.928       .  S
Ni227       O231   1.890       .  S
Ni227       O229   1.871       .  S
O228       Ni233   1.977       .  S
C230        O231   1.261       .  A
C230       C1998   1.484       .  S
O235       Ni241   1.972       .  S
O235        C256   1.281   1_556  A
O236       Ni259   1.939       .  S
O236        C245   1.291       .  A
O237       Ni241   1.918   1_554  S
O237       Ni259   1.915       .  S
O237       Ni253   1.916       .  S
O237        H260   0.965       .  S
C238        O255   1.254       .  A
C238        O247   1.268       .  A
C238        C378   1.426       .  S
O239       Ni258   1.901       .  S
O239        C245   1.266       .  A
O240       Ni258   1.872       .  S
O240        C242   1.261       .  A
Ni241       O244   1.965       .  S
Ni241       O246   1.903       .  S
C242        O252   1.275       .  A
C242        C301   1.427       .  S
O243       Ni259   1.935       .  S
O243        C249   1.271       .  A
O244        C249   1.282   1_556  A
O246        C248   1.273   1_556  A
O247       Ni258   1.927       .  S
C248        O254   1.301       .  A
C248        C606   1.490   1_554  S
C249        C509   1.507   1_554  S
H250        O251   0.966       .  S
O251       Ni259   1.896       .  S
O251       Ni253   1.888       .  S
O251       Ni258   1.921       .  S
O252       Ni253   1.929       .  S
Ni253       O257   1.890       .  S
Ni253       O255   1.871       .  S
O254       Ni259   1.977       .  S
C256        O257   1.261       .  A
C256        C360   1.484       .  S
O261      Ni1099   1.901   1_545  S
O261        C282   1.266       .  A
O262      Ni1949   1.890       .  S
O262        C271   1.261       .  A
O263       Ni267   1.921       .  S
O263       Ni285   1.888       .  S
O263       Ni279   1.896       .  S
O263        H286   0.966       .  S
C264        O281   1.271       .  A
C264        O273   1.282   1_554  A
C264        C550   1.507   1_554  S
O265      Ni1948   1.972       .  S
O265        C271   1.281   1_656  A
O266       Ni284   1.903       .  S
O266       C1100   1.273   1_556  A
Ni267       O272   1.872       .  S
Ni267      O1093   1.901       .  S
Ni267      O1934   1.927       .  S
C268        O278   1.301   1_565  A
C268       O1098   1.273   1_554  A
C268       C2952   1.490   1_564  S
O269      Ni1949   1.871       .  S
O269        C275   1.254       .  A
O270      Ni1931   1.927   1_455  S
O270        C275   1.268       .  A
C271        C401   1.484       .  S
O272        C274   1.261       .  A
O273       Ni284   1.965       .  S
C274        O280   1.275       .  A
C275        C320   1.426       .  S
H276        O277   0.965       .  S
O277       Ni285   1.916       .  S
O277       Ni279   1.915       .  S
O277       Ni284   1.918   1_554  S
O278      Ni1111   1.977   1_545  S
Ni279       O281   1.935       .  S
Ni279      O1110   1.977       .  S
Ni279      O1115   1.939       .  S
O280       Ni285   1.929       .  S
C282        O283   1.291       .  A
C282        C308   1.471       .  S
O283      Ni1111   1.939   1_545  S
Ni284      O1929   1.972       .  S
Ni285      O1926   1.890       .  S
Ni285      O1933   1.871       .  S
O287       Ni293   1.901       .  S
O287        C308   1.266       .  A
O288       Ni311   1.890       .  S
O288        C297   1.261       .  A
O289       Ni293   1.921       .  S
O289       Ni311   1.888       .  S
O289       Ni305   1.897       .  S
O289        H312   0.966       .  S
C290        O307   1.271       .  A
C290        O299   1.282       .  A
C290       C1538   1.507   1_545  S
O291       Ni310   1.972       .  S
O291        C297   1.281       .  A
O292       Ni310   1.903       .  S
O292        C294   1.273       .  A
Ni293       O296   1.926       .  S
Ni293       O298   1.872       .  S
C294        O304   1.301       .  A
C294        C820   1.490       .  S
O295       Ni311   1.871       .  S
O295        C301   1.254       .  A
O296        C301   1.268       .  A
C297        C375   1.484       .  S
O298        C300   1.261       .  A
O299       Ni310   1.965       .  S
C300        O306   1.275       .  A
C300        C342   1.426       .  S
H302        O303   0.965       .  S
O303       Ni311   1.917       .  S
O303       Ni305   1.915       .  S
O303       Ni310   1.918       .  S
O304       Ni305   1.977       .  S
Ni305       O309   1.939       .  S
Ni305       O307   1.935       .  S
O306       Ni311   1.928       .  S
C308        O309   1.291       .  A
O313       Ni319   1.972       .  S
O313        C334   1.281       .  A
O314       Ni337   1.940       .  S
O314        C323   1.291       .  A
O315       Ni319   1.918       .  S
O315       Ni337   1.916       .  S
O315       Ni331   1.916       .  S
O315        H338   0.965       .  S
C316        O333   1.254       .  A
C316        O325   1.268       .  A
C316        C404   1.426       .  S
O317       Ni336   1.901       .  S
O317        C323   1.266       .  A
O318       Ni336   1.872       .  S
O318        C320   1.261       .  A
Ni319       O322   1.965       .  S
Ni319       O324   1.903       .  S
C320        O330   1.275       .  A
O321       Ni337   1.935       .  S
O321        C327   1.271       .  A
O322        C327   1.282       .  A
C323        C349   1.472       .  S
O324        C326   1.273       .  A
O325       Ni336   1.926       .  S
C326        O332   1.301       .  A
C326        C658   1.490       .  S
C327       C1601   1.507       .  S
H328        O329   0.966       .  S
O329       Ni337   1.896       .  S
O329       Ni331   1.889       .  S
O329       Ni336   1.921       .  S
O330       Ni331   1.928       .  S
Ni331       O335   1.890       .  S
Ni331       O333   1.871       .  S
O332       Ni337   1.977       .  S
C334        O335   1.261       .  A
C334       C1894   1.484   1_455  S
O339       Ni345   1.972       .  S
O339        C360   1.281   1_556  A
O340      Ni1195   1.940       .  S
O340        C349   1.291       .  A
O341       Ni345   1.918   1_554  S
O341       Ni363   1.916       .  S
O341       Ni357   1.917       .  S
O341        H364   0.965       .  S
C342        O359   1.254       .  A
C342        O351   1.268       .  A
O343      Ni1194   1.901       .  S
O343        C349   1.266       .  A
O344       Ni362   1.872       .  S
O344        C346   1.261       .  A
Ni345       O348   1.965       .  S
Ni345       O350   1.903       .  S
C346        O356   1.275       .  A
C346        C379   1.426       .  S
O347       Ni363   1.935       .  S
O347        C353   1.271       .  A
O348        C353   1.282   1_556  A
O350       C1184   1.273   1_556  A
O351       Ni362   1.926       .  S
C352        O358   1.301       .  A
C352       O1182   1.273   1_554  A
C352       C1386   1.490   1_554  S
C353        C457   1.507   1_554  S
H354        O355   0.966   1_565  S
O355       Ni363   1.897       .  S
O355       Ni357   1.889       .  S
O355       Ni362   1.921       .  S
O356       Ni357   1.928       .  S
Ni357       O361   1.891       .  S
Ni357       O359   1.871       .  S
O358      Ni1195   1.977       .  S
C360        O361   1.262       .  A
Ni362      O1175   1.901   1_545  S
Ni363      O1172   1.940   1_545  S
Ni363      O1190   1.977   1_545  S
O365       Ni371   1.901       .  S
O365        C386   1.266       .  A
O366       Ni389   1.890       .  S
O366        C375   1.261       .  A
O367       Ni371   1.921       .  S
O367       Ni389   1.889       .  S
O367       Ni383   1.896       .  S
O367        H390   0.966       .  S
C368        O385   1.271       .  A
C368        O377   1.282       .  A
C368        C654   1.507       .  S
O369       Ni388   1.972       .  S
O369        C375   1.281       .  A
O370       Ni388   1.903       .  S
O370        C372   1.273       .  A
Ni371       O374   1.926       .  S
Ni371       O376   1.872       .  S
C372        O382   1.301       .  A
C372        C768   1.490       .  S
O373       Ni389   1.871       .  S
O373        C379   1.254       .  A
O374        C379   1.268       .  A
O376        C378   1.261       .  A
O377       Ni388   1.965       .  S
C378        O384   1.275       .  A
H380        O381   0.965       .  S
O381       Ni389   1.916       .  S
O381       Ni383   1.916       .  S
O381       Ni388   1.918       .  S
O382       Ni383   1.977       .  S
Ni383       O387   1.940       .  S
Ni383       O385   1.935       .  S
O384       Ni389   1.928       .  S
C386        O387   1.291       .  A
C386        C412   1.472       .  S
O391       Ni397   1.901       .  S
O391        C412   1.266       .  A
O392       Ni415   1.891       .  S
O392        C401   1.262       .  A
O393       Ni397   1.921       .  S
O393       Ni415   1.889       .  S
O393       Ni409   1.897       .  S
O393        H416   0.966       .  S
C394        O411   1.271       .  A
C394        O403   1.282   1_554  A
C394        C602   1.507   1_554  S
O395       Ni414   1.972       .  S
O395        C401   1.281   1_556  A
O396       Ni414   1.903       .  S
O396        C398   1.273   1_556  A
Ni397       O400   1.926   1_455  S
Ni397       O402   1.872       .  S
C398        O408   1.301       .  A
C398       C2172   1.490   1_454  S
O399      Ni2079   1.871       .  S
O399        C405   1.254       .  A
O400       C2069   1.268       .  A
O402        C404   1.261       .  A
O403       Ni414   1.965       .  S
C404        O410   1.275       .  A
C405       O2064   1.268       .  A
H406        O407   0.965       .  S
O407       Ni415   1.917       .  S
O407       Ni409   1.916       .  S
O407       Ni414   1.918   1_554  S
O408       Ni409   1.977       .  S
Ni409       O413   1.940       .  S
Ni409       O411   1.935       .  S
O410       Ni415   1.928       .  S
C412        O413   1.291       .  A
Ni415      O2063   1.871   1_455  S
O417       Ni423   1.972       .  S
O417        C438   1.281       .  A
O418       Ni441   1.939       .  S
O418        C427   1.291       .  A
O419       Ni423   1.918       .  S
O419       Ni441   1.915       .  S
O419       Ni435   1.917       .  S
O419        H442   0.965       .  S
C420        O437   1.254       .  A
C420        O429   1.268       .  A
C420        C612   1.427       .  S
O421       Ni440   1.901       .  S
O421        C427   1.266       .  A
O422       Ni440   1.872       .  S
O422        C424   1.261       .  A
Ni423       O426   1.965       .  S
Ni423       O428   1.903       .  S
C424        O434   1.275       .  A
C424        C561   1.426       .  S
O425       Ni441   1.935       .  S
O425        C431   1.271       .  A
O426        C431   1.282       .  A
C427        C453   1.471       .  S
O428        C430   1.273       .  A
O429       Ni440   1.926       .  S
C430        O436   1.301       .  A
C431        C873   1.507       .  S
H432        O433   0.966       .  S
O433       Ni441   1.897       .  S
O433       Ni435   1.888       .  S
O433       Ni440   1.921       .  S
O434       Ni435   1.928       .  S
Ni435       O439   1.890       .  S
Ni435       O437   1.871       .  S
O436       Ni441   1.977       .  S
C438        O439   1.261       .  A
C438        C490   1.484       .  S
O443       Ni449   1.972       .  S
O443        C464   1.281   1_554  A
O444      Ni1299   1.939       .  S
O444        C453   1.291       .  A
O445       Ni449   1.917   1_556  S
O445       Ni467   1.915       .  S
O445       Ni461   1.917       .  S
O445        H468   0.965       .  S
C446        O463   1.254       .  A
C446       O2119   1.268       .  A
C446        C534   1.426       .  S
O447      Ni1298   1.901       .  S
O447        C453   1.266       .  A
O448       Ni466   1.872       .  S
O448        C450   1.261       .  A
Ni449       O452   1.965       .  S
Ni449       O454   1.903       .  S
C450        O460   1.275       .  A
C450        C587   1.427       .  S
O451       Ni467   1.935       .  S
O451        C457   1.271       .  A
O452        C457   1.282   1_554  A
O454       C1288   1.273   1_554  A
O455       Ni466   1.927   1_655  S
O455       C2110   1.268       .  A
C456        O462   1.301       .  A
C456       O1286   1.273   1_556  A
C456       C2764   1.490   1_456  S
H458        O459   0.966   1_565  S
O459       Ni467   1.896       .  S
O459       Ni461   1.888       .  S
O459       Ni466   1.921       .  S
O460       Ni461   1.929       .  S
Ni461       O465   1.890       .  S
Ni461      O2127   1.871   1_455  S
O462      Ni1299   1.977       .  S
O463      Ni2125   1.871       .  S
C464        O465   1.261       .  A
C464        C516   1.484       .  S
Ni466      O1279   1.901   1_545  S
Ni467      O1276   1.939   1_545  S
Ni467      O1294   1.977   1_545  S
O469       Ni475   1.972       .  S
O469        C490   1.281       .  A
O470       Ni493   1.940       .  S
O470        C479   1.291       .  A
O471       Ni475   1.918       .  S
O471       Ni493   1.916       .  S
O471       Ni487   1.917       .  S
O471        H494   0.965       .  S
C472        O489   1.254       .  A
C472        O481   1.268       .  A
C472        C560   1.426       .  S
O473       Ni492   1.901       .  S
O473        C479   1.266       .  A
O474       Ni492   1.872       .  S
O474        C476   1.261       .  A
Ni475       O478   1.965       .  S
Ni475       O480   1.903       .  S
C476        O486   1.275       .  A
C476        C613   1.426       .  S
O477       Ni493   1.935       .  S
O477        C483   1.271       .  A
O478        C483   1.282       .  A
C479        C505   1.472       .  S
O480        C482   1.273       .  A
O481       Ni492   1.926       .  S
C482        O488   1.302       .  A
H484        O485   0.966       .  S
O485       Ni493   1.896       .  S
O485       Ni487   1.888       .  S
O485       Ni492   1.921       .  S
O486       Ni487   1.928       .  S
Ni487       O491   1.890       .  S
Ni487       O489   1.871       .  S
O488       Ni493   1.978       .  S
C490        O491   1.261       .  A
O495      Ni2165   1.972       .  S
O495        C516   1.281   1_654  A
O496       Ni519   1.940       .  S
O496        C505   1.291       .  A
O497       Ni501   1.918   1_556  S
O497       Ni519   1.916       .  S
O497       Ni513   1.917       .  S
O497        H520   0.965       .  S
C498        O515   1.254       .  A
C498        O507   1.268       .  A
C498        C586   1.426       .  S
O499       Ni518   1.901       .  S
O499        C505   1.266       .  A
O500       Ni518   1.872       .  S
O500        C502   1.261       .  A
Ni501       O504   1.964       .  S
Ni501       O506   1.903       .  S
Ni501      O2159   1.972       .  S
C502        O512   1.275       .  A
C502        C535   1.426       .  S
O503       Ni519   1.935       .  S
O503        C509   1.271       .  A
O504        C509   1.282   1_554  A
O506        C508   1.273   1_554  A
O507      Ni2182   1.926   1_455  S
C508        O514   1.301       .  A
C508       C2062   1.490   1_556  S
H510        O511   0.966       .  S
O511       Ni519   1.897       .  S
O511       Ni513   1.889       .  S
O511       Ni518   1.921       .  S
O512       Ni513   1.928       .  S
Ni513      O2181   1.891       .  S
Ni513      O2179   1.871       .  S
O514       Ni519   1.977       .  S
O515      Ni2177   1.871       .  S
C516        O517   1.262       .  A
O517      Ni2177   1.891       .  S
Ni518      O2171   1.926       .  S
O521       Ni527   1.901       .  S
O521        C542   1.266       .  A
O522       Ni545   1.890       .  S
O522        C531   1.261       .  A
O523       Ni527   1.921       .  S
O523       Ni545   1.888       .  S
O523       Ni539   1.896       .  S
O523        H546   0.966       .  S
C524        O541   1.271       .  A
C524        O533   1.282       .  A
C524        C966   1.507   1_545  S
O525       Ni544   1.972       .  S
O525        C531   1.281       .  A
O526       Ni544   1.903       .  S
O526        C528   1.273       .  A
Ni527       O530   1.926       .  S
Ni527       O532   1.872       .  S
C528        O538   1.301       .  A
O529       Ni545   1.871       .  S
O529        C535   1.254       .  A
O530        C535   1.268       .  A
C531       C2247   1.484       .  S
O532        C534   1.261       .  A
O533       Ni544   1.965       .  S
C534        O540   1.275       .  A
H536        O537   0.965       .  S
O537       Ni545   1.917       .  S
O537       Ni539   1.916       .  S
O537       Ni544   1.918       .  S
O538       Ni539   1.977       .  S
Ni539       O543   1.940       .  S
Ni539       O541   1.935       .  S
O540       Ni545   1.928       .  S
C542        O543   1.291       .  A
C542        C568   1.472       .  S
O547      Ni1385   1.901   1_545  S
O547        C568   1.266       .  A
O548       Ni571   1.891       .  S
O548        C557   1.262       .  A
O549       Ni553   1.921       .  S
O549       Ni571   1.889       .  S
O549       Ni565   1.897       .  S
O549        H572   0.966       .  S
C550        O567   1.271       .  A
C550        O559   1.282   1_556  A
O551       Ni570   1.972       .  S
O551        C557   1.281   1_554  A
O552       Ni570   1.903       .  S
O552       C1386   1.273   1_554  A
Ni553       O556   1.926       .  S
Ni553       O558   1.872       .  S
Ni553      O1379   1.901       .  S
C554        O564   1.301   1_565  A
C554       O1384   1.273   1_556  A
C554       C1184   1.490   1_566  S
O555       Ni571   1.871       .  S
O555        C561   1.254       .  A
O556        C561   1.268       .  A
C557        C609   1.484       .  S
O558        C560   1.261       .  A
O559       Ni570   1.964       .  S
C560        O566   1.275       .  A
H562        O563   0.965       .  S
O563       Ni571   1.917       .  S
O563       Ni565   1.916       .  S
O563       Ni570   1.918   1_556  S
O564      Ni1397   1.977   1_545  S
Ni565       O567   1.935       .  S
Ni565      O1396   1.977       .  S
Ni565      O1401   1.940       .  S
O566       Ni571   1.928       .  S
C568        O569   1.291       .  A
O569      Ni1397   1.940   1_545  S
O573       Ni579   1.901       .  S
O573        C594   1.266       .  A
O574       Ni597   1.890       .  S
O574        C583   1.261       .  A
O575       Ni579   1.921       .  S
O575       Ni597   1.888       .  S
O575       Ni591   1.897       .  S
O575        H598   0.966       .  S
C576        O593   1.271       .  A
C576        O585   1.282       .  A
O577       Ni596   1.972       .  S
O577        C583   1.281       .  A
O578       Ni596   1.903       .  S
O578        C580   1.273       .  A
Ni579       O582   1.926       .  S
Ni579       O584   1.872       .  S
C580        O590   1.301       .  A
O581       Ni597   1.871       .  S
O581        C587   1.254       .  A
O582        C587   1.268       .  A
C583       C2195   1.484   1_455  S
O584        C586   1.261       .  A
O585       Ni596   1.965       .  S
C586        O592   1.275       .  A
H588        O589   0.965       .  S
O589       Ni597   1.917       .  S
O589       Ni591   1.915       .  S
O589       Ni596   1.918       .  S
O590       Ni591   1.977       .  S
Ni591       O595   1.939       .  S
Ni591       O593   1.935       .  S
O592       Ni597   1.928       .  S
C594        O595   1.291       .  A
C594        C620   1.471       .  S
O599       Ni605   1.901       .  S
O599        C620   1.266       .  A
O600       Ni623   1.890       .  S
O600        C609   1.261       .  A
O601       Ni605   1.921       .  S
O601       Ni623   1.888       .  S
O601       Ni617   1.896       .  S
O601        H624   0.966       .  S
C602        O619   1.271       .  A
C602        O611   1.282   1_556  A
O603       Ni622   1.972       .  S
O603        C609   1.281   1_554  A
O604       Ni622   1.903       .  S
O604        C606   1.273   1_554  A
Ni605       O608   1.927       .  S
Ni605       O610   1.872       .  S
C606        O616   1.301       .  A
O607       Ni623   1.871       .  S
O607        C613   1.254       .  A
O608        C613   1.268       .  A
O610        C612   1.261       .  A
O611       Ni622   1.965       .  S
C612        O618   1.275       .  A
H614        O615   0.965       .  S
O615       Ni623   1.917       .  S
O615       Ni617   1.915       .  S
O615       Ni622   1.917   1_556  S
O616       Ni617   1.977       .  S
Ni617       O621   1.939       .  S
Ni617       O619   1.935       .  S
O618       Ni623   1.929       .  S
C620        O621   1.291       .  A
O625       Ni631   1.901       .  S
O625        C646   1.266       .  A
O626       Ni649   1.890       .  S
O626        C635   1.261       .  A
O627       Ni631   1.921       .  S
O627       Ni649   1.888       .  S
O627       Ni643   1.896       .  S
O627        H650   0.966       .  S
C628        O645   1.271       .  A
C628        O637   1.282       .  A
O629       Ni648   1.972       .  S
O629        C635   1.281       .  A
O630       Ni648   1.903       .  S
O630        C632   1.273       .  A
Ni631       O634   1.927   1_455  S
Ni631       O636   1.872       .  S
C632        O642   1.301       .  A
C632       C1834   1.490   1_455  S
O633      Ni2313   1.871       .  S
O633        C639   1.254       .  A
O634       C2303   1.268       .  A
C635        C687   1.483       .  S
O636        C638   1.261       .  A
O637       Ni648   1.965       .  S
C638        O644   1.275       .  A
C638        C758   1.427       .  S
C639       O2298   1.268       .  A
C639        C814   1.427       .  S
H640        O641   0.965       .  S
O641       Ni649   1.917       .  S
O641       Ni643   1.915       .  S
O641       Ni648   1.917       .  S
O642       Ni643   1.977       .  S
Ni643       O647   1.939       .  S
Ni643       O645   1.935       .  S
O644       Ni649   1.929       .  S
C646        O647   1.291       .  A
C646        C672   1.471       .  S
Ni649      O2297   1.871   1_455  S
O651       Ni657   1.901       .  S
O651        C672   1.266       .  A
O652       Ni675   1.890       .  S
O652        C661   1.261       .  A
O653       Ni657   1.921       .  S
O653       Ni675   1.888       .  S
O653       Ni669   1.897       .  S
O653        H676   0.966       .  S
C654        O671   1.271       .  A
C654        O663   1.282       .  A
O655       Ni674   1.972       .  S
O655        C661   1.281       .  A
O656       Ni674   1.903       .  S
O656        C658   1.273       .  A
Ni657       O660   1.926       .  S
Ni657       O662   1.872       .  S
C658        O668   1.301       .  A
O659       Ni675   1.871       .  S
O659        C665   1.254       .  A
O660        C665   1.268       .  A
C661        C713   1.484       .  S
O662        C664   1.261       .  A
O663       Ni674   1.965       .  S
C664        O670   1.275       .  A
C664        C784   1.426       .  S
C665        C736   1.427       .  S
H666        O667   0.965       .  S
O667       Ni675   1.917       .  S
O667       Ni669   1.915       .  S
O667       Ni674   1.918       .  S
O668       Ni669   1.977       .  S
Ni669       O673   1.939       .  S
Ni669       O671   1.935       .  S
O670       Ni675   1.928       .  S
C672        O673   1.291       .  A
O677      Ni1515   1.901       .  S
O677        C698   1.266       .  A
O678      Ni2365   1.891       .  S
O678        C687   1.262       .  A
O679       Ni683   1.921       .  S
O679       Ni701   1.889       .  S
O679       Ni695   1.897       .  S
O679        H702   0.966   1_545  S
C680        O697   1.271       .  A
C680        O689   1.282       .  A
O681      Ni2364   1.972       .  S
O681        C687   1.281   1_655  A
O682       Ni700   1.903       .  S
O682       C1516   1.273       .  A
Ni683       O688   1.872       .  S
Ni683      O1509   1.901   1_545  S
Ni683      O2350   1.926       .  S
C684        O694   1.301       .  A
C684       O1514   1.273       .  A
C684       C2510   1.490       .  S
O685      Ni2365   1.871       .  S
O685        C691   1.254       .  A
O686      Ni2347   1.926   1_455  S
O686        C691   1.268       .  A
O688        C690   1.261       .  A
O689       Ni700   1.965       .  S
C690        O696   1.275       .  A
C690        C810   1.426       .  S
C691        C762   1.426       .  S
H692        O693   0.965       .  S
O693       Ni701   1.917       .  S
O693       Ni695   1.916       .  S
O693       Ni700   1.918       .  S
O694      Ni1527   1.977       .  S
Ni695       O697   1.935       .  S
Ni695      O1526   1.977   1_545  S
Ni695      O1531   1.940   1_545  S
O696       Ni701   1.928       .  S
C698        O699   1.291       .  A
C698        C724   1.472       .  S
O699      Ni1527   1.940       .  S
Ni700      O2345   1.972       .  S
Ni701      O2342   1.891       .  S
Ni701      O2349   1.871       .  S
O703       Ni709   1.901       .  S
O703        C724   1.266       .  A
O704       Ni727   1.890       .  S
O704        C713   1.261       .  A
O705       Ni709   1.921       .  S
O705       Ni727   1.888       .  S
O705       Ni721   1.896       .  S
O705        H728   0.966       .  S
C706        O723   1.271       .  A
C706        O715   1.282       .  A
C706       C1122   1.507       .  S
O707       Ni726   1.972       .  S
O707        C713   1.281       .  A
O708       Ni726   1.903       .  S
O708        C710   1.273       .  A
Ni709       O712   1.926       .  S
Ni709       O714   1.872       .  S
C710        O720   1.302       .  A
O711       Ni727   1.871       .  S
O711        C717   1.254       .  A
O712        C717   1.268       .  A
O714        C716   1.261       .  A
O715       Ni726   1.965       .  S
C716        O722   1.275       .  A
C716        C732   1.427       .  S
C717        C788   1.426       .  S
H718        O719   0.965       .  S
O719       Ni727   1.917       .  S
O719       Ni721   1.916       .  S
O719       Ni726   1.918       .  S
O720       Ni721   1.978       .  S
Ni721       O725   1.940       .  S
Ni721       O723   1.935       .  S
O722       Ni727   1.928       .  S
C724        O725   1.291       .  A
O729       Ni735   1.972       .  S
O729        C750   1.281       .  A
O730      Ni1585   1.939   1_545  S
O730        C739   1.291       .  A
O731       Ni735   1.917       .  S
O731       Ni753   1.915       .  S
O731       Ni747   1.917       .  S
O731        H754   0.965       .  S
C732        O749   1.254       .  A
C732        O741   1.268       .  A
O733      Ni1584   1.901   1_545  S
O733        C739   1.266       .  A
O734       Ni752   1.872       .  S
O734        C736   1.261       .  A
Ni735       O738   1.965       .  S
Ni735       O740   1.903       .  S
C736        O746   1.275       .  A
O737       Ni753   1.935       .  S
O737        C743   1.271       .  A
O738        C743   1.282       .  A
C739        C765   1.471       .  S
O740       C1574   1.273       .  A
O741       Ni752   1.927       .  S
C742        O748   1.301   1_565  A
C742       O1572   1.273       .  A
C742        C944   1.490   1_565  S
H744        O745   0.966       .  S
O745       Ni753   1.896       .  S
O745       Ni747   1.888       .  S
O745       Ni752   1.921       .  S
O746       Ni747   1.929       .  S
Ni747       O751   1.890       .  S
Ni747       O749   1.871       .  S
O748      Ni1585   1.977   1_545  S
C750        O751   1.261       .  A
C750        C802   1.483       .  S
Ni752      O1565   1.901       .  S
Ni753      O1562   1.939       .  S
Ni753      O1580   1.977       .  S
O755       Ni761   1.972       .  S
O755        C776   1.281       .  A
O756       Ni779   1.939       .  S
O756        C765   1.291       .  A
O757       Ni761   1.918       .  S
O757       Ni779   1.915       .  S
O757       Ni773   1.917       .  S
O757        H780   0.965       .  S
C758        O775   1.254       .  A
C758        O767   1.268       .  A
O759       Ni778   1.901       .  S
O759        C765   1.266       .  A
O760       Ni778   1.872       .  S
O760        C762   1.261       .  A
Ni761       O764   1.965       .  S
Ni761       O766   1.903       .  S
C762        O772   1.275       .  A
O763       Ni779   1.935       .  S
O763        C769   1.271       .  A
O764        C769   1.282       .  A
O766        C768   1.273       .  A
O767       Ni778   1.926       .  S
C768        O774   1.301       .  A
C769       C1159   1.507   1_545  S
H770        O771   0.966       .  S
O771       Ni779   1.897       .  S
O771       Ni773   1.888       .  S
O771       Ni778   1.921       .  S
O772       Ni773   1.928       .  S
Ni773       O777   1.890       .  S
Ni773       O775   1.871       .  S
O774       Ni779   1.977       .  S
C776        O777   1.261       .  A
C776       C2492   1.484   1_455  S
O781       Ni787   1.972       .  S
O781        C802   1.281       .  A
O782       Ni805   1.940       .  S
O782        C791   1.291       .  A
O783       Ni787   1.918       .  S
O783       Ni805   1.916       .  S
O783       Ni799   1.917       .  S
O783        H806   0.965       .  S
C784        O801   1.254       .  A
C784        O793   1.268       .  A
O785       Ni804   1.901       .  S
O785        C791   1.266       .  A
O786       Ni804   1.872       .  S
O786        C788   1.261       .  A
Ni787       O790   1.965       .  S
Ni787       O792   1.903       .  S
C788        O798   1.275       .  A
O789       Ni805   1.935       .  S
O789        C795   1.271       .  A
O790        C795   1.282       .  A
C791        C817   1.472       .  S
O792        C794   1.273       .  A
O793       Ni804   1.926       .  S
C794        O800   1.301       .  A
H796        O797   0.966       .  S
O797       Ni805   1.897       .  S
O797       Ni799   1.889       .  S
O797       Ni804   1.921       .  S
O798       Ni799   1.928       .  S
Ni799       O803   1.891       .  S
Ni799       O801   1.871       .  S
O800       Ni805   1.977       .  S
C802        O803   1.262       .  A
O807       Ni813   1.972       .  S
O807        C828   1.281       .  A
O808       Ni831   1.940       .  S
O808        C817   1.291       .  A
O809       Ni813   1.918       .  S
O809       Ni831   1.916       .  S
O809       Ni825   1.917       .  S
O809        H832   0.965       .  S
C810        O827   1.254       .  A
C810        O819   1.268       .  A
O811       Ni830   1.901       .  S
O811        C817   1.266       .  A
O812       Ni830   1.872       .  S
O812        C814   1.261       .  A
Ni813       O816   1.965       .  S
Ni813       O818   1.903       .  S
C814        O824   1.275       .  A
O815       Ni831   1.935       .  S
O815        C821   1.271       .  A
O816        C821   1.282       .  A
O818        C820   1.273       .  A
O819       Ni830   1.926       .  S
C820        O826   1.302       .  A
H822        O823   0.966       .  S
O823       Ni831   1.896       .  S
O823       Ni825   1.889       .  S
O823       Ni830   1.921       .  S
O824       Ni825   1.928       .  S
Ni825       O829   1.890       .  S
Ni825       O827   1.871       .  S
O826       Ni831   1.978       .  S
C828        O829   1.261       .  A
C828       C2440   1.484       .  S
O833       Ni839   1.972       .  S
O833        C854   1.281       .  A
O834        C843   1.291       .  A
O835       Ni839   1.918       .  S
O835       Ni857   1.916       .  S
O835       Ni851   1.917       .  S
O835        H858   0.965       .  S
C836        O853   1.254       .  A
C836       O2509   1.268       .  A
C836        C976   1.426       .  S
O837        C843   1.266       .  A
O838       Ni856   1.872       .  S
O838        C840   1.261       .  A
Ni839       O842   1.964       .  S
Ni839       O844   1.903       .  S
C840        O850   1.275       .  A
C840        C925   1.426       .  S
O841       Ni857   1.935       .  S
O841        C847   1.271       .  A
O842        C847   1.282       .  A
C843        C869   1.472       .  S
O845       Ni856   1.926   1_655  S
O845       C2500   1.268       .  A
C846        O852   1.301       .  A
C846       C2348   1.490   1_455  S
C847       C1575   1.507       .  S
H848        O849   0.966   1_545  S
O849       Ni857   1.897       .  S
O849       Ni851   1.889       .  S
O849       Ni856   1.921       .  S
O850       Ni851   1.928       .  S
Ni851       O855   1.891       .  S
Ni851      O2517   1.871   1_455  S
O853      Ni2515   1.871       .  S
C854        O855   1.262       .  A
C854       C1010   1.484       .  S
O859       Ni865   1.972       .  S
O859        C880   1.281       .  A
O860       Ni883   1.940       .  S
O860        C869   1.291       .  A
O861       Ni865   1.918       .  S
O861       Ni883   1.916       .  S
O861       Ni877   1.917       .  S
O861        H884   0.965       .  S
C862        O879   1.254       .  A
C862        O871   1.268       .  A
C862        C898   1.426       .  S
O863       Ni882   1.901       .  S
O863        C869   1.266       .  A
O864       Ni882   1.872       .  S
O864        C866   1.261       .  A
Ni865       O868   1.965       .  S
Ni865       O870   1.903       .  S
C866        O876   1.275       .  A
C866        C951   1.426       .  S
O867       Ni883   1.935       .  S
O867        C873   1.271       .  A
O868        C873   1.282       .  A
O870        C872   1.273       .  A
O871       Ni882   1.926       .  S
C872        O878   1.301       .  A
C872       C1412   1.490       .  S
H874        O875   0.966       .  S
O875       Ni883   1.896       .  S
O875       Ni877   1.889       .  S
O875       Ni882   1.921       .  S
O876       Ni877   1.928       .  S
Ni877       O881   1.890       .  S
Ni877       O879   1.871       .  S
O878       Ni883   1.977       .  S
C880        O881   1.261       .  A
C880       C1036   1.484       .  S
O885       Ni891   1.901       .  S
O885        C906   1.266       .  A
O886       Ni909   1.891       .  S
O886        C895   1.262       .  A
O887       Ni891   1.921       .  S
O887       Ni909   1.889       .  S
O887       Ni903   1.897       .  S
O887        H910   0.966       .  S
C888        O905   1.271       .  A
C888        O897   1.282       .  A
C888       C1460   1.507       .  S
O889       Ni908   1.972       .  S
O889        C895   1.281       .  A
O890       Ni908   1.903       .  S
O890        C892   1.273       .  A
Ni891       O894   1.926       .  S
Ni891       O896   1.872       .  S
C892        O902   1.301       .  A
C892       C1626   1.490       .  S
O893       Ni909   1.871       .  S
O893        C899   1.254       .  A
O894        C899   1.268       .  A
C895        C947   1.484       .  S
O896        C898   1.261       .  A
O897       Ni908   1.965       .  S
C898        O904   1.275       .  A
C899       C1022   1.426       .  S
H900        O901   0.965       .  S
O901       Ni909   1.917       .  S
O901       Ni903   1.916       .  S
O901       Ni908   1.918       .  S
O902       Ni903   1.977       .  S
Ni903       O907   1.940       .  S
Ni903       O905   1.935       .  S
O904       Ni909   1.928       .  S
C906        O907   1.291       .  A
C906        C932   1.472       .  S
O911       Ni917   1.901       .  S
O911        C932   1.266       .  A
O912       Ni935   1.890       .  S
O912        C921   1.261       .  A
O913       Ni917   1.921       .  S
O913       Ni935   1.889       .  S
O913       Ni929   1.896       .  S
O913        H936   0.966       .  S
C914        O931   1.271       .  A
C914        O923   1.282       .  A
C914       C1408   1.507       .  S
O915       Ni934   1.972       .  S
O915        C921   1.281       .  A
O916       Ni934   1.903       .  S
O916        C918   1.273       .  A
Ni917       O920   1.926       .  S
Ni917       O922   1.872       .  S
C918        O928   1.301       .  A
C918       C1262   1.490       .  S
O919       Ni935   1.871       .  S
O919        C925   1.254       .  A
O920        C925   1.268       .  A
C921       C2637   1.484   1_455  S
O922        C924   1.261       .  A
O923       Ni934   1.965       .  S
C924        O930   1.275       .  A
C924        C992   1.426       .  S
H926        O927   0.965       .  S
O927       Ni935   1.917       .  S
O927       Ni929   1.916       .  S
O927       Ni934   1.918       .  S
O928       Ni929   1.977       .  S
Ni929       O933   1.940       .  S
Ni929       O931   1.935       .  S
O930       Ni935   1.928       .  S
C932        O933   1.291       .  A
O937        C958   1.266       .  A
O938       Ni961   1.890       .  S
O938        C947   1.261       .  A
O939       Ni943   1.921       .  S
O939       Ni961   1.888       .  S
O939       Ni955   1.896       .  S
O939        H962   0.966       .  S
C940        O957   1.271       .  A
C940        O949   1.282       .  A
C940       C1512   1.507       .  S
O941       Ni960   1.972       .  S
O941        C947   1.281       .  A
O942       Ni960   1.903       .  S
Ni943       O946   1.926       .  S
Ni943       O948   1.872       .  S
C944        O954   1.301   1_545  A
O945       Ni961   1.871       .  S
O945        C951   1.254       .  A
O946        C951   1.268       .  A
O948        C950   1.261       .  A
O949       Ni960   1.965       .  S
C950        O956   1.275       .  A
C950       C1018   1.427       .  S
H952        O953   0.965       .  S
O953       Ni961   1.916       .  S
O953       Ni955   1.915       .  S
O953       Ni960   1.917       .  S
Ni955       O957   1.935       .  S
O956       Ni961   1.929       .  S
C958        O959   1.291       .  A
C958        C984   1.472       .  S
O963       Ni969   1.901       .  S
O963        C984   1.266       .  A
O964       Ni987   1.890       .  S
O964        C973   1.261       .  A
O965       Ni969   1.921       .  S
O965       Ni987   1.888       .  S
O965       Ni981   1.897       .  S
O965        H988   0.966       .  S
C966        O983   1.271       .  A
C966        O975   1.282       .  A
O967       Ni986   1.972       .  S
O967        C973   1.281       .  A
O968       Ni986   1.903       .  S
O968        C970   1.273       .  A
Ni969       O972   1.926       .  S
Ni969       O974   1.872       .  S
C970        O980   1.301       .  A
C970       C1314   1.490       .  S
O971       Ni987   1.871       .  S
O971        C977   1.254       .  A
O972        C977   1.268       .  A
C973       C2585   1.484       .  S
O974        C976   1.261       .  A
O975       Ni986   1.965       .  S
C976        O982   1.275       .  A
C977        C996   1.427       .  S
H978        O979   0.965       .  S
O979       Ni987   1.917       .  S
O979       Ni981   1.916       .  S
O979       Ni986   1.918       .  S
O980       Ni981   1.977       .  S
Ni981       O985   1.940       .  S
Ni981       O983   1.935       .  S
O982       Ni987   1.928       .  S
C984        O985   1.291       .  A
O989      Ni2659   1.972       .  S
O989       C1010   1.281   1_655  A
O990      Ni1013   1.939       .  S
O990        C999   1.291       .  A
O991       Ni995   1.917       .  S
O991      Ni1013   1.915       .  S
O991      Ni1007   1.916       .  S
O991       H1014   0.965       .  S
C992       O1009   1.254       .  A
C992       O1001   1.268       .  A
O993      Ni1012   1.901       .  S
O993        C999   1.266       .  A
O994      Ni1012   1.872       .  S
O994        C996   1.261       .  A
Ni995      O2653   1.972       .  S
Ni995       O998   1.965       .  S
Ni995      O1000   1.903       .  S
C996       O1006   1.275       .  A
O997      Ni1013   1.935       .  S
O997       C1003   1.271       .  A
O998       C1003   1.282       .  A
C999       C1025   1.471       .  S
O1000      C1002   1.273       .  A
O1001     Ni2676   1.927   1_455  S
C1002      O1008   1.301       .  A
C1002      C3128   1.490       .  S
C1003      C1627   1.507       .  S
H1004      O1005   0.966       .  S
O1005     Ni1013   1.896       .  S
O1005     Ni1007   1.888       .  S
O1005     Ni1012   1.921       .  S
O1006     Ni1007   1.929       .  S
Ni1007     O2675   1.890       .  S
Ni1007     O2673   1.871       .  S
O1008     Ni1013   1.977       .  S
O1009     Ni2671   1.871       .  S
C1010      O1011   1.261       .  A
O1011     Ni2671   1.890       .  S
Ni1012     O2665   1.927       .  S
O1015     Ni1021   1.972       .  S
O1015      C1036   1.281       .  A
O1016     Ni1039   1.939       .  S
O1016      C1025   1.291       .  A
O1017     Ni1021   1.918       .  S
O1017     Ni1039   1.915       .  S
O1017     Ni1033   1.917       .  S
O1017      H1040   0.965       .  S
C1018      O1035   1.254       .  A
C1018      O1027   1.268       .  A
O1019     Ni1038   1.901       .  S
O1019      C1025   1.266       .  A
O1020     Ni1038   1.872       .  S
O1020      C1022   1.261       .  A
Ni1021     O1024   1.965       .  S
Ni1021     O1026   1.903       .  S
C1022      O1032   1.275       .  A
O1023     Ni1039   1.935       .  S
O1023      C1029   1.271       .  A
O1024      C1029   1.282       .  A
O1026      C1028   1.273       .  A
O1027     Ni1038   1.926       .  S
C1028      O1034   1.301       .  A
C1028      C1360   1.490       .  S
C1029      C1315   1.507       .  S
H1030      O1031   0.966       .  S
O1031     Ni1039   1.897       .  S
O1031     Ni1033   1.888       .  S
O1031     Ni1038   1.921       .  S
O1032     Ni1033   1.928       .  S
Ni1033     O1037   1.890       .  S
Ni1033     O1035   1.871       .  S
O1034     Ni1039   1.977       .  S
C1036      O1037   1.261       .  A
O1041     Ni1047   1.972       .  S
O1041      C1062   1.281       .  A
O1042     Ni1065   1.939       .  S
O1042      C1051   1.291       .  A
O1043     Ni1047   1.918       .  S
O1043     Ni1065   1.915       .  S
O1043     Ni1059   1.917       .  S
O1043      H1066   0.965       .  S
C1044      O1061   1.254       .  A
C1044      O1053   1.268       .  A
C1044      C1106   1.427       .  S
O1045     Ni1064   1.901       .  S
O1045      C1051   1.266       .  A
O1046     Ni1064   1.872       .  S
O1046      C1048   1.261       .  A
Ni1047     O1050   1.965       .  S
Ni1047     O1052   1.903       .  S
C1048      O1058   1.275       .  A
C1048      C1237   1.426       .  S
O1049     Ni1065   1.935       .  S
O1049      C1055   1.271       .  A
O1050      C1055   1.282       .  A
C1051      C1077   1.471       .  S
O1052      C1054   1.273       .  A
O1053     Ni1064   1.926       .  S
C1054      O1060   1.301       .  A
C1054      C1542   1.490       .  S
C1055      C1653   1.507       .  S
H1056      O1057   0.966       .  S
O1057     Ni1065   1.897       .  S
O1057     Ni1059   1.888       .  S
O1057     Ni1064   1.921       .  S
O1058     Ni1059   1.928       .  S
Ni1059     O1063   1.890       .  S
Ni1059     O1061   1.871       .  S
O1060     Ni1065   1.977       .  S
C1062      O1063   1.261       .  A
C1062      C2830   1.484       .  S
O1067     Ni1073   1.972       .  S
O1067      C1088   1.281   1_556  A
O1068     Ni1091   1.939       .  S
O1068      C1077   1.291       .  A
O1069     Ni1073   1.918   1_554  S
O1069     Ni1091   1.915       .  S
O1069     Ni1085   1.916       .  S
O1069      H1092   0.965       .  S
C1070      O1087   1.254       .  A
C1070      O1079   1.268       .  A
C1070      C1210   1.426       .  S
O1071     Ni1090   1.901       .  S
O1071      C1077   1.266       .  A
O1072     Ni1090   1.872       .  S
O1072      C1074   1.261       .  A
Ni1073     O1076   1.965       .  S
Ni1073     O1078   1.903       .  S
C1074      O1084   1.275       .  A
C1074      C1133   1.427       .  S
O1075     Ni1091   1.935       .  S
O1075      C1081   1.271       .  A
O1076      C1081   1.282   1_556  A
O1078      C1080   1.273   1_556  A
O1079     Ni1090   1.927       .  S
C1080      O1086   1.301       .  A
C1080      C1438   1.490   1_554  S
C1081      C1341   1.507   1_554  S
H1082      O1083   0.966       .  S
O1083     Ni1091   1.896       .  S
O1083     Ni1085   1.888       .  S
O1083     Ni1090   1.921       .  S
O1084     Ni1085   1.929       .  S
Ni1085     O1089   1.890       .  S
Ni1085     O1087   1.871       .  S
O1086     Ni1091   1.977       .  S
C1088      O1089   1.261       .  A
C1088      C1192   1.484       .  S
O1093      C1114   1.266       .  A
O1094     Ni2781   1.890       .  S
O1094      C1103   1.261       .  A
O1095     Ni1099   1.921       .  S
O1095     Ni1117   1.888       .  S
O1095     Ni1111   1.896       .  S
O1095      H1118   0.966   1_565  S
C1096      O1113   1.271       .  A
C1096      O1105   1.282   1_554  A
C1096      C1382   1.507   1_554  S
O1097     Ni2780   1.972       .  S
O1097      C1103   1.281   1_656  A
O1098     Ni1116   1.903       .  S
Ni1099     O2766   1.927       .  S
Ni1099     O1104   1.872       .  S
C1100      O1110   1.301       .  A
C1100      C2120   1.490   1_554  S
O1101     Ni2781   1.871       .  S
O1101      C1107   1.254       .  A
O1102     Ni2763   1.927   1_455  S
O1102      C1107   1.268       .  A
C1103      C1233   1.484       .  S
O1104      C1106   1.261       .  A
O1105     Ni1116   1.965       .  S
C1106      O1112   1.275       .  A
C1107      C1152   1.427       .  S
H1108      O1109   0.965       .  S
O1109     Ni1117   1.916       .  S
O1109     Ni1111   1.915       .  S
O1109     Ni1116   1.918   1_554  S
Ni1111     O1113   1.935       .  S
O1112     Ni1117   1.929       .  S
C1114      O1115   1.291       .  A
C1114      C1140   1.471       .  S
Ni1116     O2761   1.972       .  S
Ni1117     O2758   1.890       .  S
Ni1117     O2765   1.871       .  S
O1119     Ni1125   1.901       .  S
O1119      C1140   1.266       .  A
O1120     Ni1143   1.890       .  S
O1120      C1129   1.261       .  A
O1121     Ni1125   1.921       .  S
O1121     Ni1143   1.888       .  S
O1121     Ni1137   1.897       .  S
O1121      H1144   0.966       .  S
C1122      O1139   1.271       .  A
C1122      O1131   1.282       .  A
O1123     Ni1142   1.972       .  S
O1123      C1129   1.281       .  A
O1124     Ni1142   1.903       .  S
O1124      C1126   1.273       .  A
Ni1125     O1128   1.926       .  S
Ni1125     O1130   1.872       .  S
C1126      O1136   1.301       .  A
C1126      C1652   1.490       .  S
O1127     Ni1143   1.871       .  S
O1127      C1133   1.254       .  A
O1128      C1133   1.268       .  A
C1129      C1207   1.484       .  S
O1130      C1132   1.261       .  A
O1131     Ni1142   1.965       .  S
C1132      O1138   1.275       .  A
C1132      C1174   1.426       .  S
H1134      O1135   0.965       .  S
O1135     Ni1143   1.917       .  S
O1135     Ni1137   1.915       .  S
O1135     Ni1142   1.918       .  S
O1136     Ni1137   1.977       .  S
Ni1137     O1141   1.939       .  S
Ni1137     O1139   1.935       .  S
O1138     Ni1143   1.928       .  S
C1140      O1141   1.291       .  A
O1145     Ni1151   1.972       .  S
O1145      C1166   1.281       .  A
O1146     Ni1169   1.940       .  S
O1146      C1155   1.291       .  A
O1147     Ni1151   1.918       .  S
O1147     Ni1169   1.916       .  S
O1147     Ni1163   1.916       .  S
O1147      H1170   0.965       .  S
C1148      O1165   1.254       .  A
C1148      O1157   1.268       .  A
C1148      C1236   1.426       .  S
O1149     Ni1168   1.901       .  S
O1149      C1155   1.266       .  A
O1150     Ni1168   1.872       .  S
O1150      C1152   1.261       .  A
Ni1151     O1154   1.965       .  S
Ni1151     O1156   1.903       .  S
C1152      O1162   1.275       .  A
O1153     Ni1169   1.935       .  S
O1153      C1159   1.271       .  A
O1154      C1159   1.282       .  A
C1155      C1181   1.472       .  S
O1156      C1158   1.273       .  A
O1157     Ni1168   1.926       .  S
C1158      O1164   1.301       .  A
C1158      C1490   1.490       .  S
H1160      O1161   0.966       .  S
O1161     Ni1169   1.896       .  S
O1161     Ni1163   1.889       .  S
O1161     Ni1168   1.921       .  S
O1162     Ni1163   1.928       .  S
Ni1163     O1167   1.890       .  S
Ni1163     O1165   1.871       .  S
O1164     Ni1169   1.977       .  S
C1166      O1167   1.261       .  A
C1166      C2726   1.484   1_455  S
O1171     Ni1177   1.972       .  S
O1171      C1192   1.281   1_556  A
O1172      C1181   1.291       .  A
O1173     Ni1177   1.918   1_554  S
O1173     Ni1195   1.916       .  S
O1173     Ni1189   1.917       .  S
O1173      H1196   0.965       .  S
C1174      O1191   1.254       .  A
C1174      O1183   1.268       .  A
O1175      C1181   1.266       .  A
O1176     Ni1194   1.872       .  S
O1176      C1178   1.261       .  A
Ni1177     O1180   1.965       .  S
Ni1177     O1182   1.903       .  S
C1178      O1188   1.275       .  A
C1178      C1211   1.426       .  S
O1179     Ni1195   1.935       .  S
O1179      C1185   1.271       .  A
O1180      C1185   1.282   1_556  A
O1183     Ni1194   1.926       .  S
C1184      O1190   1.301   1_545  A
C1185      C1289   1.507   1_554  S
H1186      O1187   0.966       .  S
O1187     Ni1195   1.897       .  S
O1187     Ni1189   1.889       .  S
O1187     Ni1194   1.921       .  S
O1188     Ni1189   1.928       .  S
Ni1189     O1193   1.891       .  S
Ni1189     O1191   1.871       .  S
C1192      O1193   1.262       .  A
O1197     Ni1203   1.901       .  S
O1197      C1218   1.266       .  A
O1198     Ni1221   1.890       .  S
O1198      C1207   1.261       .  A
O1199     Ni1203   1.921       .  S
O1199     Ni1221   1.889       .  S
O1199     Ni1215   1.896       .  S
O1199      H1222   0.966       .  S
C1200      O1217   1.271       .  A
C1200      O1209   1.282       .  A
C1200      C1486   1.507       .  S
O1201     Ni1220   1.972       .  S
O1201      C1207   1.281       .  A
O1202     Ni1220   1.903       .  S
O1202      C1204   1.273       .  A
Ni1203     O1206   1.926       .  S
Ni1203     O1208   1.872       .  S
C1204      O1214   1.301       .  A
C1204      C1600   1.490       .  S
O1205     Ni1221   1.871       .  S
O1205      C1211   1.254       .  A
O1206      C1211   1.268       .  A
O1208      C1210   1.261       .  A
O1209     Ni1220   1.965       .  S
C1210      O1216   1.275       .  A
H1212      O1213   0.965       .  S
O1213     Ni1221   1.916       .  S
O1213     Ni1215   1.916       .  S
O1213     Ni1220   1.918       .  S
O1214     Ni1215   1.977       .  S
Ni1215     O1219   1.940       .  S
Ni1215     O1217   1.935       .  S
O1216     Ni1221   1.928       .  S
C1218      O1219   1.291       .  A
C1218      C1244   1.472       .  S
O1223     Ni1229   1.901       .  S
O1223      C1244   1.266       .  A
O1224     Ni1247   1.891       .  S
O1224      C1233   1.262       .  A
O1225     Ni1229   1.921       .  S
O1225     Ni1247   1.889       .  S
O1225     Ni1241   1.897       .  S
O1225      H1248   0.966       .  S
C1226      O1243   1.271       .  A
C1226      O1235   1.282   1_554  A
C1226      C1434   1.507   1_554  S
O1227     Ni1246   1.972       .  S
O1227      C1233   1.281   1_556  A
O1228     Ni1246   1.903       .  S
O1228      C1230   1.273   1_556  A
Ni1229     O1232   1.926   1_455  S
Ni1229     O1234   1.872       .  S
C1230      O1240   1.301       .  A
C1230      C3004   1.490   1_454  S
O1231     Ni2911   1.871       .  S
O1231      C1237   1.254       .  A
O1232      C2901   1.268       .  A
O1234      C1236   1.261       .  A
O1235     Ni1246   1.965       .  S
C1236      O1242   1.275       .  A
C1237      O2896   1.268       .  A
H1238      O1239   0.965       .  S
O1239     Ni1247   1.917       .  S
O1239     Ni1241   1.916       .  S
O1239     Ni1246   1.918   1_554  S
O1240     Ni1241   1.977       .  S
Ni1241     O1245   1.940       .  S
Ni1241     O1243   1.935       .  S
O1242     Ni1247   1.928       .  S
C1244      O1245   1.291       .  A
Ni1247     O2895   1.871   1_455  S
O1249     Ni1255   1.972       .  S
O1249      C1270   1.281       .  A
O1250     Ni1273   1.939       .  S
O1250      C1259   1.291       .  A
O1251     Ni1255   1.918       .  S
O1251     Ni1273   1.915       .  S
O1251     Ni1267   1.917       .  S
O1251      H1274   0.965       .  S
C1252      O1269   1.254       .  A
C1252      O1261   1.268       .  A
C1252      C1444   1.427       .  S
O1253     Ni1272   1.901       .  S
O1253      C1259   1.266       .  A
O1254     Ni1272   1.872       .  S
O1254      C1256   1.261       .  A
Ni1255     O1258   1.965       .  S
Ni1255     O1260   1.903       .  S
C1256      O1266   1.275       .  A
C1256      C1393   1.426       .  S
O1257     Ni1273   1.935       .  S
O1257      C1263   1.271       .  A
O1258      C1263   1.282       .  A
C1259      C1285   1.471       .  S
O1260      C1262   1.273       .  A
O1261     Ni1272   1.926       .  S
C1262      O1268   1.301       .  A
H1264      O1265   0.966       .  S
O1265     Ni1273   1.897       .  S
O1265     Ni1267   1.888       .  S
O1265     Ni1272   1.921       .  S
O1266     Ni1267   1.928       .  S
Ni1267     O1271   1.890       .  S
Ni1267     O1269   1.871       .  S
O1268     Ni1273   1.977       .  S
C1270      O1271   1.261       .  A
C1270      C1322   1.484       .  S
O1275     Ni1281   1.972       .  S
O1275      C1296   1.281   1_554  A
O1276      C1285   1.291       .  A
O1277     Ni1281   1.917   1_556  S
O1277     Ni1299   1.915       .  S
O1277     Ni1293   1.917       .  S
O1277      H1300   0.965       .  S
C1278      O1295   1.254       .  A
C1278      O2951   1.268       .  A
C1278      C1366   1.426       .  S
O1279      C1285   1.266       .  A
O1280     Ni1298   1.872       .  S
O1280      C1282   1.261       .  A
Ni1281     O1284   1.965       .  S
Ni1281     O1286   1.903       .  S
C1282      O1292   1.275       .  A
C1282      C1419   1.427       .  S
O1283     Ni1299   1.935       .  S
O1283      C1289   1.271       .  A
O1284      C1289   1.282   1_554  A
O1287     Ni1298   1.927   1_655  S
O1287      C2942   1.268       .  A
C1288      O1294   1.301   1_545  A
C1288      C1932   1.490   1_446  S
H1290      O1291   0.966       .  S
O1291     Ni1299   1.896       .  S
O1291     Ni1293   1.888       .  S
O1291     Ni1298   1.921       .  S
O1292     Ni1293   1.929       .  S
Ni1293     O1297   1.890       .  S
Ni1293     O2959   1.871   1_455  S
O1295     Ni2957   1.871       .  S
C1296      O1297   1.261       .  A
C1296      C1348   1.484       .  S
O1301     Ni1307   1.972       .  S
O1301      C1322   1.281       .  A
O1302     Ni1325   1.940       .  S
O1302      C1311   1.291       .  A
O1303     Ni1307   1.918       .  S
O1303     Ni1325   1.916       .  S
O1303     Ni1319   1.917       .  S
O1303      H1326   0.965       .  S
C1304      O1321   1.254       .  A
C1304      O1313   1.268       .  A
C1304      C1392   1.426       .  S
O1305     Ni1324   1.901       .  S
O1305      C1311   1.266       .  A
O1306     Ni1324   1.872       .  S
O1306      C1308   1.261       .  A
Ni1307     O1310   1.965       .  S
Ni1307     O1312   1.903       .  S
C1308      O1318   1.275       .  A
C1308      C1445   1.426       .  S
O1309     Ni1325   1.935       .  S
O1309      C1315   1.271       .  A
O1310      C1315   1.282       .  A
C1311      C1337   1.472       .  S
O1312      C1314   1.273       .  A
O1313     Ni1324   1.926       .  S
C1314      O1320   1.302       .  A
H1316      O1317   0.966       .  S
O1317     Ni1325   1.896       .  S
O1317     Ni1319   1.888       .  S
O1317     Ni1324   1.921       .  S
O1318     Ni1319   1.928       .  S
Ni1319     O1323   1.890       .  S
Ni1319     O1321   1.871       .  S
O1320     Ni1325   1.978       .  S
C1322      O1323   1.261       .  A
O1327     Ni2997   1.972       .  S
O1327      C1348   1.281   1_654  A
O1328     Ni1351   1.940       .  S
O1328      C1337   1.291       .  A
O1329     Ni1333   1.918   1_556  S
O1329     Ni1351   1.916       .  S
O1329     Ni1345   1.917       .  S
O1329      H1352   0.965       .  S
C1330      O1347   1.254       .  A
C1330      O1339   1.268       .  A
C1330      C1418   1.426       .  S
O1331     Ni1350   1.901       .  S
O1331      C1337   1.266       .  A
O1332     Ni1350   1.872       .  S
O1332      C1334   1.261       .  A
Ni1333     O2991   1.972       .  S
Ni1333     O1336   1.965       .  S
Ni1333     O1338   1.903       .  S
C1334      O1344   1.275       .  A
C1334      C1367   1.426       .  S
O1335     Ni1351   1.935       .  S
O1335      C1341   1.271       .  A
O1336      C1341   1.282   1_554  A
O1338      C1340   1.273   1_554  A
O1339     Ni3014   1.926   1_455  S
C1340      O1346   1.301       .  A
C1340      C2894   1.490   1_556  S
H1342      O1343   0.966       .  S
O1343     Ni1351   1.897       .  S
O1343     Ni1345   1.889       .  S
O1343     Ni1350   1.921       .  S
O1344     Ni1345   1.928       .  S
Ni1345     O3013   1.891       .  S
Ni1345     O3011   1.871       .  S
O1346     Ni1351   1.977       .  S
O1347     Ni3009   1.871       .  S
C1348      O1349   1.262       .  A
O1349     Ni3009   1.891       .  S
Ni1350     O3003   1.926       .  S
O1353     Ni1359   1.901       .  S
O1353      C1374   1.266       .  A
O1354     Ni1377   1.890       .  S
O1354      C1363   1.261       .  A
O1355     Ni1359   1.921       .  S
O1355     Ni1377   1.888       .  S
O1355     Ni1371   1.896       .  S
O1355      H1378   0.966       .  S
C1356      O1373   1.271       .  A
C1356      O1365   1.282       .  A
O1357     Ni1376   1.972       .  S
O1357      C1363   1.281       .  A
O1358     Ni1376   1.903       .  S
O1358      C1360   1.273       .  A
Ni1359     O1362   1.926       .  S
Ni1359     O1364   1.872       .  S
C1360      O1370   1.301       .  A
O1361     Ni1377   1.871       .  S
O1361      C1367   1.254       .  A
O1362      C1367   1.268       .  A
C1363      C3079   1.484       .  S
O1364      C1366   1.261       .  A
O1365     Ni1376   1.965       .  S
C1366      O1372   1.275       .  A
H1368      O1369   0.965       .  S
O1369     Ni1377   1.917       .  S
O1369     Ni1371   1.916       .  S
O1369     Ni1376   1.918       .  S
O1370     Ni1371   1.977       .  S
Ni1371     O1375   1.940       .  S
Ni1371     O1373   1.935       .  S
O1372     Ni1377   1.928       .  S
C1374      O1375   1.291       .  A
C1374      C1400   1.472       .  S
O1379      C1400   1.266       .  A
O1380     Ni1403   1.891       .  S
O1380      C1389   1.262       .  A
O1381     Ni1385   1.921       .  S
O1381     Ni1403   1.889       .  S
O1381     Ni1397   1.897       .  S
O1381      H1404   0.966   1_565  S
C1382      O1399   1.271       .  A
C1382      O1391   1.282   1_556  A
O1383     Ni1402   1.972       .  S
O1383      C1389   1.281   1_554  A
O1384     Ni1402   1.903       .  S
Ni1385     O1388   1.926       .  S
Ni1385     O1390   1.872       .  S
C1386      O1396   1.301       .  A
O1387     Ni1403   1.871       .  S
O1387      C1393   1.254       .  A
O1388      C1393   1.268       .  A
C1389      C1441   1.484       .  S
O1390      C1392   1.261       .  A
O1391     Ni1402   1.964       .  S
C1392      O1398   1.275       .  A
H1394      O1395   0.965       .  S
O1395     Ni1403   1.917       .  S
O1395     Ni1397   1.916       .  S
O1395     Ni1402   1.918   1_556  S
Ni1397     O1399   1.935       .  S
O1398     Ni1403   1.928       .  S
C1400      O1401   1.291       .  A
O1405     Ni1411   1.901       .  S
O1405      C1426   1.266       .  A
O1406     Ni1429   1.890       .  S
O1406      C1415   1.261       .  A
O1407     Ni1411   1.921       .  S
O1407     Ni1429   1.888       .  S
O1407     Ni1423   1.897       .  S
O1407      H1430   0.966       .  S
C1408      O1425   1.271       .  A
C1408      O1417   1.282       .  A
O1409     Ni1428   1.972       .  S
O1409      C1415   1.281       .  A
O1410     Ni1428   1.903       .  S
O1410      C1412   1.273       .  A
Ni1411     O1414   1.926       .  S
Ni1411     O1416   1.872       .  S
C1412      O1422   1.301       .  A
O1413     Ni1429   1.871       .  S
O1413      C1419   1.254       .  A
O1414      C1419   1.268       .  A
C1415      C3027   1.484   1_455  S
O1416      C1418   1.261       .  A
O1417     Ni1428   1.965       .  S
C1418      O1424   1.275       .  A
H1420      O1421   0.965       .  S
O1421     Ni1429   1.917       .  S
O1421     Ni1423   1.915       .  S
O1421     Ni1428   1.918       .  S
O1422     Ni1423   1.977       .  S
Ni1423     O1427   1.939       .  S
Ni1423     O1425   1.935       .  S
O1424     Ni1429   1.928       .  S
C1426      O1427   1.291       .  A
C1426      C1452   1.471       .  S
O1431     Ni1437   1.901       .  S
O1431      C1452   1.266       .  A
O1432     Ni1455   1.890       .  S
O1432      C1441   1.261       .  A
O1433     Ni1437   1.921       .  S
O1433     Ni1455   1.888       .  S
O1433     Ni1449   1.896       .  S
O1433      H1456   0.966       .  S
C1434      O1451   1.271       .  A
C1434      O1443   1.282   1_556  A
O1435     Ni1454   1.972       .  S
O1435      C1441   1.281   1_554  A
O1436     Ni1454   1.903       .  S
O1436      C1438   1.273   1_554  A
Ni1437     O1440   1.927       .  S
Ni1437     O1442   1.872       .  S
C1438      O1448   1.301       .  A
O1439     Ni1455   1.871       .  S
O1439      C1445   1.254       .  A
O1440      C1445   1.268       .  A
O1442      C1444   1.261       .  A
O1443     Ni1454   1.965       .  S
C1444      O1450   1.275       .  A
H1446      O1447   0.965       .  S
O1447     Ni1455   1.917       .  S
O1447     Ni1449   1.915       .  S
O1447     Ni1454   1.917   1_556  S
O1448     Ni1449   1.977       .  S
Ni1449     O1453   1.939       .  S
Ni1449     O1451   1.935       .  S
O1450     Ni1455   1.929       .  S
C1452      O1453   1.291       .  A
O1457     Ni1463   1.901       .  S
O1457      C1478   1.266       .  A
O1458     Ni1481   1.890       .  S
O1458      C1467   1.261       .  A
O1459     Ni1463   1.921       .  S
O1459     Ni1481   1.888       .  S
O1459     Ni1475   1.896       .  S
O1459      H1482   0.966       .  S
C1460      O1477   1.271       .  A
C1460      O1469   1.282       .  A
O1461     Ni1480   1.972       .  S
O1461      C1467   1.281       .  A
O1462     Ni1480   1.903       .  S
O1462      C1464   1.273       .  A
Ni1463     O1466   1.927   1_455  S
Ni1463     O1468   1.872       .  S
C1464      O1474   1.301       .  A
C1464      C2666   1.490   1_455  S
O1465     Ni3145   1.871       .  S
O1465      C1471   1.254       .  A
O1466      C3135   1.268       .  A
C1467      C1519   1.483       .  S
O1468      C1470   1.261       .  A
O1469     Ni1480   1.965       .  S
C1470      O1476   1.275       .  A
C1470      C1590   1.427       .  S
C1471      O3130   1.268       .  A
C1471      C1646   1.427       .  S
H1472      O1473   0.965       .  S
O1473     Ni1481   1.917       .  S
O1473     Ni1475   1.915       .  S
O1473     Ni1480   1.917       .  S
O1474     Ni1475   1.977       .  S
Ni1475     O1479   1.939       .  S
Ni1475     O1477   1.935       .  S
O1476     Ni1481   1.929       .  S
C1478      O1479   1.291       .  A
C1478      C1504   1.471       .  S
Ni1481     O3129   1.871   1_455  S
O1483     Ni1489   1.901       .  S
O1483      C1504   1.266       .  A
O1484     Ni1507   1.890       .  S
O1484      C1493   1.261       .  A
O1485     Ni1489   1.921       .  S
O1485     Ni1507   1.888       .  S
O1485     Ni1501   1.897       .  S
O1485      H1508   0.966       .  S
C1486      O1503   1.271       .  A
C1486      O1495   1.282       .  A
O1487     Ni1506   1.972       .  S
O1487      C1493   1.281       .  A
O1488     Ni1506   1.903       .  S
O1488      C1490   1.273       .  A
Ni1489     O1492   1.926       .  S
Ni1489     O1494   1.872       .  S
C1490      O1500   1.301       .  A
O1491     Ni1507   1.871       .  S
O1491      C1497   1.254       .  A
O1492      C1497   1.268       .  A
C1493      C1545   1.484       .  S
O1494      C1496   1.261       .  A
O1495     Ni1506   1.965       .  S
C1496      O1502   1.275       .  A
C1496      C1616   1.426       .  S
C1497      C1568   1.427       .  S
H1498      O1499   0.965       .  S
O1499     Ni1507   1.917       .  S
O1499     Ni1501   1.915       .  S
O1499     Ni1506   1.918       .  S
O1500     Ni1501   1.977       .  S
Ni1501     O1505   1.939       .  S
Ni1501     O1503   1.935       .  S
O1502     Ni1507   1.928       .  S
C1504      O1505   1.291       .  A
O1509      C1530   1.266       .  A
O1510     Ni3197   1.891       .  S
O1510      C1519   1.262       .  A
O1511     Ni1515   1.921       .  S
O1511     Ni1533   1.889       .  S
O1511     Ni1527   1.897       .  S
O1511      H1534   0.966       .  S
C1512      O1529   1.271       .  A
C1512      O1521   1.282       .  A
O1513     Ni3196   1.972       .  S
O1513      C1519   1.281   1_655  A
O1514     Ni1532   1.903       .  S
Ni1515     O3182   1.926       .  S
Ni1515     O1520   1.872       .  S
C1516      O1526   1.301   1_545  A
C1516      C1678   1.490   1_545  S
O1517     Ni3197   1.871       .  S
O1517      C1523   1.254       .  A
O1518     Ni3179   1.926   1_455  S
O1518      C1523   1.268       .  A
O1520      C1522   1.261       .  A
O1521     Ni1532   1.965       .  S
C1522      O1528   1.275       .  A
C1522      C1642   1.426       .  S
C1523      C1594   1.426       .  S
H1524      O1525   0.965       .  S
O1525     Ni1533   1.917       .  S
O1525     Ni1527   1.916       .  S
O1525     Ni1532   1.918       .  S
Ni1527     O1529   1.935       .  S
O1528     Ni1533   1.928       .  S
C1530      O1531   1.291       .  A
C1530      C1556   1.472       .  S
Ni1532     O3177   1.972       .  S
Ni1533     O3174   1.891       .  S
Ni1533     O3181   1.871       .  S
O1535     Ni1541   1.901       .  S
O1535      C1556   1.266       .  A
O1536     Ni1559   1.890       .  S
O1536      C1545   1.261       .  A
O1537     Ni1541   1.921       .  S
O1537     Ni1559   1.888       .  S
O1537     Ni1553   1.896       .  S
O1537      H1560   0.966       .  S
C1538      O1555   1.271       .  A
C1538      O1547   1.282       .  A
O1539     Ni1558   1.972       .  S
O1539      C1545   1.281       .  A
O1540     Ni1558   1.903       .  S
O1540      C1542   1.273       .  A
Ni1541     O1544   1.926       .  S
Ni1541     O1546   1.872       .  S
C1542      O1552   1.302       .  A
O1543     Ni1559   1.871       .  S
O1543      C1549   1.254       .  A
O1544      C1549   1.268       .  A
O1546      C1548   1.261       .  A
O1547     Ni1558   1.965       .  S
C1548      O1554   1.275       .  A
C1548      C1564   1.427       .  S
C1549      C1620   1.426       .  S
H1550      O1551   0.965       .  S
O1551     Ni1559   1.917       .  S
O1551     Ni1553   1.916       .  S
O1551     Ni1558   1.918       .  S
O1552     Ni1553   1.978       .  S
Ni1553     O1557   1.940       .  S
Ni1553     O1555   1.935       .  S
O1554     Ni1559   1.928       .  S
C1556      O1557   1.291       .  A
O1561     Ni1567   1.972       .  S
O1561      C1582   1.281       .  A
O1562      C1571   1.291       .  A
O1563     Ni1567   1.917       .  S
O1563     Ni1585   1.915       .  S
O1563     Ni1579   1.917       .  S
O1563      H1586   0.965       .  S
C1564      O1581   1.254       .  A
C1564      O1573   1.268       .  A
O1565      C1571   1.266       .  A
O1566     Ni1584   1.872       .  S
O1566      C1568   1.261       .  A
Ni1567     O1570   1.965       .  S
Ni1567     O1572   1.903       .  S
C1568      O1578   1.275       .  A
O1569     Ni1585   1.935       .  S
O1569      C1575   1.271       .  A
O1570      C1575   1.282       .  A
C1571      C1597   1.471       .  S
O1573     Ni1584   1.927       .  S
C1574      O1580   1.301       .  A
H1576      O1577   0.966   1_545  S
O1577     Ni1585   1.896       .  S
O1577     Ni1579   1.888       .  S
O1577     Ni1584   1.921       .  S
O1578     Ni1579   1.929       .  S
Ni1579     O1583   1.890       .  S
Ni1579     O1581   1.871       .  S
C1582      O1583   1.261       .  A
C1582      C1634   1.483       .  S
O1587     Ni1593   1.972       .  S
O1587      C1608   1.281       .  A
O1588     Ni1611   1.939       .  S
O1588      C1597   1.291       .  A
O1589     Ni1593   1.918       .  S
O1589     Ni1611   1.915       .  S
O1589     Ni1605   1.917       .  S
O1589      H1612   0.965       .  S
C1590      O1607   1.254       .  A
C1590      O1599   1.268       .  A
O1591     Ni1610   1.901       .  S
O1591      C1597   1.266       .  A
O1592     Ni1610   1.872       .  S
O1592      C1594   1.261       .  A
Ni1593     O1596   1.965       .  S
Ni1593     O1598   1.903       .  S
C1594      O1604   1.275       .  A
O1595     Ni1611   1.935       .  S
O1595      C1601   1.271       .  A
O1596      C1601   1.282       .  A
O1598      C1600   1.273       .  A
O1599     Ni1610   1.926       .  S
C1600      O1606   1.301       .  A
H1602      O1603   0.966       .  S
O1603     Ni1611   1.897       .  S
O1603     Ni1605   1.888       .  S
O1603     Ni1610   1.921       .  S
O1604     Ni1605   1.928       .  S
Ni1605     O1609   1.890       .  S
Ni1605     O1607   1.871       .  S
O1606     Ni1611   1.977       .  S
C1608      O1609   1.261       .  A
C1608      C3324   1.484   1_455  S
O1613     Ni1619   1.972       .  S
O1613      C1634   1.281       .  A
O1614     Ni1637   1.940       .  S
O1614      C1623   1.291       .  A
O1615     Ni1619   1.918       .  S
O1615     Ni1637   1.916       .  S
O1615     Ni1631   1.917       .  S
O1615      H1638   0.965       .  S
C1616      O1633   1.254       .  A
C1616      O1625   1.268       .  A
O1617     Ni1636   1.901       .  S
O1617      C1623   1.266       .  A
O1618     Ni1636   1.872       .  S
O1618      C1620   1.261       .  A
Ni1619     O1622   1.965       .  S
Ni1619     O1624   1.903       .  S
C1620      O1630   1.275       .  A
O1621     Ni1637   1.935       .  S
O1621      C1627   1.271       .  A
O1622      C1627   1.282       .  A
C1623      C1649   1.472       .  S
O1624      C1626   1.273       .  A
O1625     Ni1636   1.926       .  S
C1626      O1632   1.301       .  A
H1628      O1629   0.966       .  S
O1629     Ni1637   1.897       .  S
O1629     Ni1631   1.889       .  S
O1629     Ni1636   1.921       .  S
O1630     Ni1631   1.928       .  S
Ni1631     O1635   1.891       .  S
Ni1631     O1633   1.871       .  S
O1632     Ni1637   1.977       .  S
C1634      O1635   1.262       .  A
O1639     Ni1645   1.972       .  S
O1639      C1660   1.281       .  A
O1640     Ni1663   1.940       .  S
O1640      C1649   1.291       .  A
O1641     Ni1645   1.918       .  S
O1641     Ni1663   1.916       .  S
O1641     Ni1657   1.917       .  S
O1641      H1664   0.965       .  S
C1642      O1659   1.254       .  A
C1642      O1651   1.268       .  A
O1643     Ni1662   1.901       .  S
O1643      C1649   1.266       .  A
O1644     Ni1662   1.872       .  S
O1644      C1646   1.261       .  A
Ni1645     O1648   1.965       .  S
Ni1645     O1650   1.903       .  S
C1646      O1656   1.275       .  A
O1647     Ni1663   1.935       .  S
O1647      C1653   1.271       .  A
O1648      C1653   1.282       .  A
O1650      C1652   1.273       .  A
O1651     Ni1662   1.926       .  S
C1652      O1658   1.302       .  A
H1654      O1655   0.966       .  S
O1655     Ni1663   1.896       .  S
O1655     Ni1657   1.888       .  S
O1655     Ni1662   1.921       .  S
O1656     Ni1657   1.928       .  S
Ni1657     O1661   1.890       .  S
Ni1657     O1659   1.871       .  S
O1658     Ni1663   1.978       .  S
C1660      O1661   1.261       .  A
C1660      C3272   1.484       .  S
O1665     Ni1671   1.972       .  S
O1665      C1686   1.281       .  A
O1666     Ni2521   1.940   1_545  S
O1666      C1675   1.291       .  A
O1667     Ni1671   1.918       .  S
O1667     Ni1689   1.916       .  S
O1667     Ni1683   1.917       .  S
O1667      H1690   0.965       .  S
C1668      O1685   1.254       .  A
C1668      C1808   1.426       .  S
O1669     Ni2520   1.901   1_545  S
O1669      C1675   1.266       .  A
O1670     Ni1688   1.872       .  S
O1670      C1672   1.261       .  A
Ni1671     O1674   1.964       .  S
Ni1671     O1676   1.903       .  S
C1672      O1682   1.275       .  A
C1672      C1757   1.426       .  S
O1673     Ni1689   1.935       .  S
O1673      C1679   1.271       .  A
O1674      C1679   1.282       .  A
C1675      C1701   1.472       .  S
O1676      C2510   1.273       .  A
O1677     Ni1688   1.926       .  S
C1678      O2508   1.273       .  A
C1678      O1684   1.301   1_565  A
C1679      C2407   1.507       .  S
H1680      O1681   0.966       .  S
O1681     Ni1689   1.897       .  S
O1681     Ni1683   1.889       .  S
O1681     Ni1688   1.921       .  S
O1682     Ni1683   1.928       .  S
Ni1683     O1687   1.891       .  S
O1684     Ni2521   1.977   1_545  S
C1686      O1687   1.262       .  A
C1686      C1842   1.484       .  S
Ni1688     O2501   1.901       .  S
Ni1689     O2498   1.940       .  S
Ni1689     O2516   1.977       .  S
O1691     Ni1697   1.972       .  S
O1691      C1712   1.281       .  A
O1692     Ni1715   1.940       .  S
O1692      C1701   1.291       .  A
O1693     Ni1697   1.918       .  S
O1693     Ni1715   1.916       .  S
O1693     Ni1709   1.917       .  S
O1693      H1716   0.965       .  S
C1694      O1711   1.254       .  A
C1694      O1703   1.268       .  A
C1694      C1730   1.426       .  S
O1695     Ni1714   1.901       .  S
O1695      C1701   1.266       .  A
O1696     Ni1714   1.872       .  S
O1696      C1698   1.261       .  A
Ni1697     O1700   1.965       .  S
Ni1697     O1702   1.903       .  S
C1698      O1708   1.275       .  A
C1698      C1783   1.426       .  S
O1699     Ni1715   1.935       .  S
O1699      C1705   1.271       .  A
O1700      C1705   1.282       .  A
O1702      C1704   1.273       .  A
O1703     Ni1714   1.926       .  S
C1704      O1710   1.301       .  A
C1704      C2244   1.490       .  S
C1705      C2927   1.507   1_545  S
H1706      O1707   0.966       .  S
O1707     Ni1715   1.896       .  S
O1707     Ni1709   1.889       .  S
O1707     Ni1714   1.921       .  S
O1708     Ni1709   1.928       .  S
Ni1709     O1713   1.890       .  S
Ni1709     O1711   1.871       .  S
O1710     Ni1715   1.977       .  S
C1712      O1713   1.261       .  A
C1712      C1868   1.484       .  S
O1717     Ni1723   1.901       .  S
O1717      C1738   1.266       .  A
O1718     Ni1741   1.891       .  S
O1718      C1727   1.262       .  A
O1719     Ni1723   1.921       .  S
O1719     Ni1741   1.889       .  S
O1719     Ni1735   1.897       .  S
O1719      H1742   0.966       .  S
C1720      O1737   1.271       .  A
C1720      O1729   1.282       .  A
C1720      C2292   1.507       .  S
O1721     Ni1740   1.972       .  S
O1721      C1727   1.281       .  A
O1722     Ni1740   1.903       .  S
O1722      C1724   1.273       .  A
Ni1723     O1726   1.926       .  S
Ni1723     O1728   1.872       .  S
C1724      O1734   1.301       .  A
C1724      C2458   1.490       .  S
O1725     Ni1741   1.871       .  S
O1725      C1731   1.254       .  A
O1726      C1731   1.268       .  A
C1727      C1779   1.484       .  S
O1728      C1730   1.261       .  A
O1729     Ni1740   1.965       .  S
C1730      O1736   1.275       .  A
C1731      C1854   1.426       .  S
H1732      O1733   0.965       .  S
O1733     Ni1741   1.917       .  S
O1733     Ni1735   1.916       .  S
O1733     Ni1740   1.918       .  S
O1734     Ni1735   1.977       .  S
Ni1735     O1739   1.940       .  S
Ni1735     O1737   1.935       .  S
O1736     Ni1741   1.928       .  S
C1738      O1739   1.291       .  A
C1738      C1764   1.472       .  S
O1743     Ni1749   1.901       .  S
O1743      C1764   1.266       .  A
O1744     Ni1767   1.890       .  S
O1744      C1753   1.261       .  A
O1745     Ni1749   1.921       .  S
O1745     Ni1767   1.889       .  S
O1745     Ni1761   1.896       .  S
O1745      H1768   0.966       .  S
C1746      O1763   1.271       .  A
C1746      O1755   1.282       .  A
C1746      C2240   1.507       .  S
O1747     Ni1766   1.972       .  S
O1747      C1753   1.281       .  A
O1748     Ni1766   1.903       .  S
O1748      C1750   1.273       .  A
Ni1749     O1752   1.926       .  S
Ni1749     O1754   1.872       .  S
C1750      O1760   1.301       .  A
C1750      C2094   1.490       .  S
O1751     Ni1767   1.871       .  S
O1751      C1757   1.254       .  A
O1752      C1757   1.268       .  A
O1754      C1756   1.261       .  A
O1755     Ni1766   1.965       .  S
C1756      O1762   1.275       .  A
C1756      C1824   1.426       .  S
H1758      O1759   0.965       .  S
O1759     Ni1767   1.917       .  S
O1759     Ni1761   1.916       .  S
O1759     Ni1766   1.918       .  S
O1760     Ni1761   1.977       .  S
Ni1761     O1765   1.940       .  S
Ni1761     O1763   1.935       .  S
O1762     Ni1767   1.928       .  S
C1764      O1765   1.291       .  A
O1769     Ni2607   1.901       .  S
O1769      C1790   1.266       .  A
O1770     Ni1793   1.890       .  S
O1770      C1779   1.261       .  A
O1771     Ni1775   1.921       .  S
O1771     Ni1793   1.888       .  S
O1771     Ni1787   1.896       .  S
O1771      H1794   0.966   1_545  S
C1772      O1789   1.271       .  A
C1772      O1781   1.282       .  A
C1772      C2344   1.507       .  S
O1773     Ni1792   1.972       .  S
O1773      C1779   1.281       .  A
O1774     Ni1792   1.903       .  S
O1774      C2608   1.273       .  A
Ni1775     O2601   1.901   1_545  S
Ni1775     O1778   1.926       .  S
Ni1775     O1780   1.872       .  S
C1776      O2606   1.273       .  A
C1776      O1786   1.301       .  A
C1776      C3238   1.490       .  S
O1777     Ni1793   1.871       .  S
O1777      C1783   1.254       .  A
O1778      C1783   1.268       .  A
O1780      C1782   1.261       .  A
O1781     Ni1792   1.965       .  S
C1782      O1788   1.275       .  A
C1782      C1850   1.427       .  S
H1784      O1785   0.965       .  S
O1785     Ni1793   1.916       .  S
O1785     Ni1787   1.915       .  S
O1785     Ni1792   1.917       .  S
O1786     Ni2619   1.977       .  S
Ni1787     O2618   1.977   1_545  S
Ni1787     O2623   1.939   1_545  S
Ni1787     O1789   1.935       .  S
O1788     Ni1793   1.929       .  S
C1790      O1791   1.291       .  A
C1790      C1816   1.472       .  S
O1791     Ni2619   1.939       .  S
O1795     Ni1801   1.901       .  S
O1795      C1816   1.266       .  A
O1796     Ni1819   1.890       .  S
O1796      C1805   1.261       .  A
O1797     Ni1801   1.921       .  S
O1797     Ni1819   1.888       .  S
O1797     Ni1813   1.897       .  S
O1797      H1820   0.966       .  S
C1798      O1815   1.271       .  A
C1798      O1807   1.282       .  A
C1798      C3020   1.507       .  S
O1799     Ni1818   1.972       .  S
O1799      C1805   1.281       .  A
O1800     Ni1818   1.903       .  S
O1800      C1802   1.273       .  A
Ni1801     O1804   1.926       .  S
Ni1801     O1806   1.872       .  S
C1802      O1812   1.301       .  A
C1802      C2146   1.490       .  S
O1803     Ni1819   1.871       .  S
O1803      C1809   1.254       .  A
O1804      C1809   1.268       .  A
O1806      C1808   1.261       .  A
O1807     Ni1818   1.965       .  S
C1808      O1814   1.275       .  A
C1809      C1828   1.427       .  S
H1810      O1811   0.965       .  S
O1811     Ni1819   1.917       .  S
O1811     Ni1813   1.916       .  S
O1811     Ni1818   1.918       .  S
O1812     Ni1813   1.977       .  S
Ni1813     O1817   1.940       .  S
Ni1813     O1815   1.935       .  S
O1814     Ni1819   1.928       .  S
C1816      O1817   1.291       .  A
O1821      C1842   1.281       .  A
O1822     Ni1845   1.939       .  S
O1822      C1831   1.291       .  A
O1823     Ni1827   1.917       .  S
O1823     Ni1845   1.915       .  S
O1823     Ni1839   1.916   1_655  S
O1823      H1846   0.965       .  S
C1824      O1841   1.254       .  A
C1824      O1833   1.268       .  A
O1825     Ni1844   1.901       .  S
O1825      C1831   1.266       .  A
O1826     Ni1844   1.872       .  S
O1826      C1828   1.261       .  A
Ni1827     O1830   1.965       .  S
Ni1827     O1832   1.903       .  S
C1828      O1838   1.275       .  A
O1829     Ni1845   1.935       .  S
O1829      C1835   1.271       .  A
O1830      C1835   1.282       .  A
C1831      C1857   1.471       .  S
O1832      C1834   1.273       .  A
C1834      O1840   1.301       .  A
C1835      C2459   1.507       .  S
H1836      O1837   0.966   1_455  S
O1837     Ni1845   1.896       .  S
O1837     Ni1839   1.888   1_655  S
O1837     Ni1844   1.921       .  S
O1838     Ni1839   1.929   1_655  S
O1840     Ni1845   1.977       .  S
C1842      O1843   1.261       .  A
O1847     Ni1853   1.972       .  S
O1847      C1868   1.281       .  A
O1848     Ni1871   1.939       .  S
O1848      C1857   1.291       .  A
O1849     Ni1853   1.918       .  S
O1849     Ni1871   1.915       .  S
O1849     Ni1865   1.917       .  S
O1849      H1872   0.965       .  S
C1850      O1867   1.254       .  A
C1850      O1859   1.268       .  A
O1851     Ni1870   1.901       .  S
O1851      C1857   1.266       .  A
O1852     Ni1870   1.872       .  S
O1852      C1854   1.261       .  A
Ni1853     O1856   1.965       .  S
Ni1853     O1858   1.903       .  S
C1854      O1864   1.275       .  A
O1855     Ni1871   1.935       .  S
O1855      C1861   1.271       .  A
O1856      C1861   1.282       .  A
O1858      C1860   1.273       .  A
O1859     Ni1870   1.926       .  S
C1860      O1866   1.301       .  A
C1860      C2192   1.490       .  S
C1861      C2147   1.507       .  S
H1862      O1863   0.966       .  S
O1863     Ni1871   1.897       .  S
O1863     Ni1865   1.888       .  S
O1863     Ni1870   1.921       .  S
O1864     Ni1865   1.928       .  S
Ni1865     O1869   1.890       .  S
Ni1865     O1867   1.871       .  S
O1866     Ni1871   1.977       .  S
C1868      O1869   1.261       .  A
O1873     Ni1879   1.972       .  S
O1873      C1894   1.281       .  A
O1874     Ni1897   1.939       .  S
O1874      C1883   1.291       .  A
O1875     Ni1879   1.918       .  S
O1875     Ni1897   1.915       .  S
O1875     Ni1891   1.917       .  S
O1875      H1898   0.965       .  S
C1876      O1893   1.254       .  A
C1876      O1885   1.268       .  A
C1876      C1938   1.427       .  S
O1877     Ni1896   1.901       .  S
O1877      C1883   1.266       .  A
O1878     Ni1896   1.872       .  S
O1878      C1880   1.261       .  A
Ni1879     O1882   1.965       .  S
Ni1879     O1884   1.903       .  S
C1880      O1890   1.275       .  A
C1880      C2069   1.426       .  S
O1881     Ni1897   1.935       .  S
O1881      C1887   1.271       .  A
O1882      C1887   1.282       .  A
C1883      C1909   1.471       .  S
O1884      C1886   1.273       .  A
O1885     Ni1896   1.926       .  S
C1886      O1892   1.301       .  A
C1886      C2374   1.490       .  S
C1887      C2485   1.507       .  S
H1888      O1889   0.966       .  S
O1889     Ni1897   1.897       .  S
O1889     Ni1891   1.888       .  S
O1889     Ni1896   1.921       .  S
O1890     Ni1891   1.928       .  S
Ni1891     O1895   1.890       .  S
Ni1891     O1893   1.871       .  S
O1892     Ni1897   1.977       .  S
C1894      O1895   1.261       .  A
O1899     Ni1905   1.972       .  S
O1899      C1920   1.281   1_556  A
O1900     Ni1923   1.939       .  S
O1900      C1909   1.291       .  A
O1901     Ni1905   1.918   1_554  S
O1901     Ni1923   1.915       .  S
O1901     Ni1917   1.916       .  S
O1901      H1924   0.965       .  S
C1902      O1919   1.254       .  A
C1902      O1911   1.268       .  A
C1902      C2042   1.426       .  S
O1903     Ni1922   1.901       .  S
O1903      C1909   1.266       .  A
O1904     Ni1922   1.872       .  S
O1904      C1906   1.261       .  A
Ni1905     O1908   1.965       .  S
Ni1905     O1910   1.903       .  S
C1906      O1916   1.275       .  A
C1906      C1965   1.427       .  S
O1907     Ni1923   1.935       .  S
O1907      C1913   1.271       .  A
O1908      C1913   1.282   1_556  A
O1910      C1912   1.273   1_556  A
O1911     Ni1922   1.927       .  S
C1912      O1918   1.301       .  A
C1912      C2270   1.490   1_554  S
C1913      C2173   1.507   1_554  S
H1914      O1915   0.966       .  S
O1915     Ni1923   1.896       .  S
O1915     Ni1917   1.888       .  S
O1915     Ni1922   1.921       .  S
O1916     Ni1917   1.929       .  S
Ni1917     O1921   1.890       .  S
Ni1917     O1919   1.871       .  S
O1918     Ni1923   1.977       .  S
C1920      O1921   1.261       .  A
C1920      C2024   1.484       .  S
O1925     Ni2763   1.901   1_545  S
O1925      C1946   1.266       .  A
O1926      C1935   1.261       .  A
O1927     Ni1931   1.921       .  S
O1927     Ni1949   1.888   1_655  S
O1927     Ni1943   1.896       .  S
O1927      H1950   0.966   1_655  S
C1928      O1945   1.271       .  A
C1928      O1937   1.282   1_554  A
C1928      C2214   1.507   1_554  S
O1929      C1935   1.281   1_556  A
O1930     Ni1948   1.903       .  S
O1930      C2764   1.273   1_556  A
Ni1931     O2757   1.901       .  S
Ni1931     O1936   1.872       .  S
C1932      O2762   1.273   1_554  A
C1932      O1942   1.301   1_565  A
O1933      C1939   1.254       .  A
O1934      C1939   1.268       .  A
C1935      C2065   1.484       .  S
O1936      C1938   1.261       .  A
O1937     Ni1948   1.965       .  S
C1938      O1944   1.275       .  A
C1939      C1984   1.427       .  S
H1940      O1941   0.965       .  S
O1941     Ni1949   1.916   1_655  S
O1941     Ni1943   1.915       .  S
O1941     Ni1948   1.918   1_554  S
O1942     Ni2775   1.977   1_545  S
Ni1943     O2774   1.977       .  S
Ni1943     O2779   1.939       .  S
Ni1943     O1945   1.935       .  S
O1944     Ni1949   1.929   1_655  S
C1946      O1947   1.291       .  A
C1946      C1972   1.471       .  S
O1947     Ni2775   1.939   1_545  S
O1951     Ni1957   1.901       .  S
O1951      C1972   1.266       .  A
O1952     Ni1975   1.890       .  S
O1952      C1961   1.261       .  A
O1953     Ni1957   1.921       .  S
O1953     Ni1975   1.888       .  S
O1953     Ni1969   1.897       .  S
O1953      H1976   0.966       .  S
C1954      O1971   1.271       .  A
C1954      O1963   1.282       .  A
C1954      C3202   1.507   1_545  S
O1955     Ni1974   1.972       .  S
O1955      C1961   1.281       .  A
O1956     Ni1974   1.903       .  S
O1956      C1958   1.273       .  A
Ni1957     O1960   1.926       .  S
Ni1957     O1962   1.872       .  S
C1958      O1968   1.301       .  A
C1958      C2484   1.490       .  S
O1959     Ni1975   1.871       .  S
O1959      C1965   1.254       .  A
O1960      C1965   1.268       .  A
C1961      C2039   1.484       .  S
O1962      C1964   1.261       .  A
O1963     Ni1974   1.965       .  S
C1964      O1970   1.275       .  A
C1964      C2006   1.426       .  S
H1966      O1967   0.965       .  S
O1967     Ni1975   1.917       .  S
O1967     Ni1969   1.915       .  S
O1967     Ni1974   1.918       .  S
O1968     Ni1969   1.977       .  S
Ni1969     O1973   1.939       .  S
Ni1969     O1971   1.935       .  S
O1970     Ni1975   1.928       .  S
C1972      O1973   1.291       .  A
O1977     Ni1983   1.972       .  S
O1977      C1998   1.281       .  A
O1978     Ni2001   1.940       .  S
O1978      C1987   1.291       .  A
O1979     Ni1983   1.918       .  S
O1979     Ni2001   1.916       .  S
O1979     Ni1995   1.916       .  S
O1979      H2002   0.965       .  S
C1980      O1997   1.254       .  A
C1980      O1989   1.268       .  A
C1980      C2068   1.426       .  S
O1981     Ni2000   1.901       .  S
O1981      C1987   1.266       .  A
O1982     Ni2000   1.872       .  S
O1982      C1984   1.261       .  A
Ni1983     O1986   1.965       .  S
Ni1983     O1988   1.903       .  S
C1984      O1994   1.275       .  A
O1985     Ni2001   1.935       .  S
O1985      C1991   1.271       .  A
O1986      C1991   1.282       .  A
C1987      C2013   1.472       .  S
O1988      C1990   1.273       .  A
O1989     Ni2000   1.926       .  S
C1990      O1996   1.301       .  A
C1990      C2322   1.490       .  S
C1991      C3265   1.507       .  S
H1992      O1993   0.966       .  S
O1993     Ni2001   1.896       .  S
O1993     Ni1995   1.889       .  S
O1993     Ni2000   1.921       .  S
O1994     Ni1995   1.928       .  S
Ni1995     O1999   1.890       .  S
Ni1995     O1997   1.871       .  S
O1996     Ni2001   1.977       .  S
C1998      O1999   1.261       .  A
O2003     Ni2009   1.972       .  S
O2003      C2024   1.281   1_556  A
O2004     Ni2859   1.940       .  S
O2004      C2013   1.291       .  A
O2005     Ni2009   1.918   1_554  S
O2005     Ni2027   1.916       .  S
O2005     Ni2021   1.917       .  S
O2005      H2028   0.965       .  S
C2006      O2023   1.254       .  A
C2006      O2015   1.268       .  A
O2007     Ni2858   1.901       .  S
O2007      C2013   1.266       .  A
O2008     Ni2026   1.872       .  S
O2008      C2010   1.261       .  A
Ni2009     O2012   1.965       .  S
Ni2009     O2014   1.903       .  S
C2010      O2020   1.275       .  A
C2010      C2043   1.426       .  S
O2011     Ni2027   1.935       .  S
O2011      C2017   1.271       .  A
O2012      C2017   1.282   1_556  A
O2014      C2848   1.273   1_556  A
O2015     Ni2026   1.926       .  S
C2016      O2846   1.273   1_554  A
C2016      O2022   1.301       .  A
C2016      C3050   1.490   1_554  S
C2017      C2121   1.507   1_554  S
H2018      O2019   0.966   1_565  S
O2019     Ni2027   1.897       .  S
O2019     Ni2021   1.889       .  S
O2019     Ni2026   1.921       .  S
O2020     Ni2021   1.928       .  S
Ni2021     O2025   1.891       .  S
Ni2021     O2023   1.871       .  S
O2022     Ni2859   1.977       .  S
C2024      O2025   1.262       .  A
Ni2026     O2839   1.901   1_545  S
Ni2027     O2836   1.940   1_545  S
Ni2027     O2854   1.977   1_545  S
O2029     Ni2035   1.901       .  S
O2029      C2050   1.266       .  A
O2030     Ni2053   1.890       .  S
O2030      C2039   1.261       .  A
O2031     Ni2035   1.921       .  S
O2031     Ni2053   1.889       .  S
O2031     Ni2047   1.896       .  S
O2031      H2054   0.966       .  S
C2032      O2049   1.271       .  A
C2032      O2041   1.282       .  A
C2032      C2318   1.507       .  S
O2033     Ni2052   1.972       .  S
O2033      C2039   1.281       .  A
O2034     Ni2052   1.903       .  S
O2034      C2036   1.273       .  A
Ni2035     O2038   1.926       .  S
Ni2035     O2040   1.872       .  S
C2036      O2046   1.301       .  A
C2036      C2432   1.490       .  S
O2037     Ni2053   1.871       .  S
O2037      C2043   1.254       .  A
O2038      C2043   1.268       .  A
O2040      C2042   1.261       .  A
O2041     Ni2052   1.965       .  S
C2042      O2048   1.275       .  A
H2044      O2045   0.965       .  S
O2045     Ni2053   1.916       .  S
O2045     Ni2047   1.916       .  S
O2045     Ni2052   1.918       .  S
O2046     Ni2047   1.977       .  S
Ni2047     O2051   1.940       .  S
Ni2047     O2049   1.935       .  S
O2048     Ni2053   1.928       .  S
C2050      O2051   1.291       .  A
C2050      C2076   1.472       .  S
O2055     Ni2061   1.901       .  S
O2055      C2076   1.266       .  A
O2056     Ni2079   1.891       .  S
O2056      C2065   1.262       .  A
O2057     Ni2061   1.921       .  S
O2057     Ni2079   1.889       .  S
O2057     Ni2073   1.897       .  S
O2057      H2080   0.966       .  S
C2058      O2075   1.271       .  A
C2058      O2067   1.282   1_554  A
C2058      C2266   1.507   1_554  S
O2059     Ni2078   1.972       .  S
O2059      C2065   1.281   1_556  A
O2060     Ni2078   1.903       .  S
O2060      C2062   1.273   1_556  A
Ni2061     O2064   1.926       .  S
Ni2061     O2066   1.872       .  S
C2062      O2072   1.301       .  A
O2063      C2069   1.254       .  A
O2066      C2068   1.261       .  A
O2067     Ni2078   1.965       .  S
C2068      O2074   1.275       .  A
H2070      O2071   0.965       .  S
O2071     Ni2079   1.917       .  S
O2071     Ni2073   1.916       .  S
O2071     Ni2078   1.918   1_554  S
O2072     Ni2073   1.977       .  S
Ni2073     O2077   1.940       .  S
Ni2073     O2075   1.935       .  S
O2074     Ni2079   1.928       .  S
C2076      O2077   1.291       .  A
O2081     Ni2087   1.972       .  S
O2081      C2102   1.281       .  A
O2082     Ni2105   1.939       .  S
O2082      C2091   1.291       .  A
O2083     Ni2087   1.918       .  S
O2083     Ni2105   1.915       .  S
O2083     Ni2099   1.917       .  S
O2083      H2106   0.965       .  S
C2084      O2101   1.254       .  A
C2084      O2093   1.268       .  A
C2084      C2276   1.427       .  S
O2085     Ni2104   1.901       .  S
O2085      C2091   1.266       .  A
O2086     Ni2104   1.872       .  S
O2086      C2088   1.261       .  A
Ni2087     O2090   1.965       .  S
Ni2087     O2092   1.903       .  S
C2088      O2098   1.275       .  A
C2088      C2225   1.426       .  S
O2089     Ni2105   1.935       .  S
O2089      C2095   1.271       .  A
O2090      C2095   1.282       .  A
C2091      C2117   1.471       .  S
O2092      C2094   1.273       .  A
O2093     Ni2104   1.926       .  S
C2094      O2100   1.301       .  A
C2095      C2537   1.507       .  S
H2096      O2097   0.966       .  S
O2097     Ni2105   1.897       .  S
O2097     Ni2099   1.888       .  S
O2097     Ni2104   1.921       .  S
O2098     Ni2099   1.928       .  S
Ni2099     O2103   1.890       .  S
Ni2099     O2101   1.871       .  S
O2100     Ni2105   1.977       .  S
C2102      O2103   1.261       .  A
C2102      C2154   1.484       .  S
O2107     Ni2113   1.972       .  S
O2107      C2128   1.281   1_554  A
O2108     Ni2963   1.939       .  S
O2108      C2117   1.291       .  A
O2109     Ni2113   1.917   1_556  S
O2109     Ni2131   1.915       .  S
O2109     Ni2125   1.917       .  S
O2109      H2132   0.965       .  S
C2110      O2127   1.254       .  A
C2110      C2198   1.426       .  S
O2111     Ni2962   1.901       .  S
O2111      C2117   1.266       .  A
O2112     Ni2130   1.872       .  S
O2112      C2114   1.261       .  A
Ni2113     O2116   1.965       .  S
Ni2113     O2118   1.903       .  S
C2114      O2124   1.275       .  A
C2114      C2251   1.427       .  S
O2115     Ni2131   1.935       .  S
O2115      C2121   1.271       .  A
O2116      C2121   1.282   1_554  A
O2118      C2952   1.273   1_554  A
O2119     Ni2130   1.927       .  S
C2120      O2950   1.273   1_556  A
C2120      O2126   1.301       .  A
H2122      O2123   0.966   1_565  S
O2123     Ni2131   1.896       .  S
O2123     Ni2125   1.888       .  S
O2123     Ni2130   1.921       .  S
O2124     Ni2125   1.929       .  S
Ni2125     O2129   1.890       .  S
O2126     Ni2963   1.977       .  S
C2128      O2129   1.261       .  A
C2128      C2180   1.484       .  S
Ni2130     O2943   1.901   1_545  S
Ni2131     O2940   1.939   1_545  S
Ni2131     O2958   1.977   1_545  S
O2133     Ni2139   1.972       .  S
O2133      C2154   1.281       .  A
O2134     Ni2157   1.940       .  S
O2134      C2143   1.291       .  A
O2135     Ni2139   1.918       .  S
O2135     Ni2157   1.916       .  S
O2135     Ni2151   1.917       .  S
O2135      H2158   0.965       .  S
C2136      O2153   1.254       .  A
C2136      O2145   1.268       .  A
C2136      C2224   1.426       .  S
O2137     Ni2156   1.901       .  S
O2137      C2143   1.266       .  A
O2138     Ni2156   1.872       .  S
O2138      C2140   1.261       .  A
Ni2139     O2142   1.965       .  S
Ni2139     O2144   1.903       .  S
C2140      O2150   1.275       .  A
C2140      C2277   1.426       .  S
O2141     Ni2157   1.935       .  S
O2141      C2147   1.271       .  A
O2142      C2147   1.282       .  A
C2143      C2169   1.472       .  S
O2144      C2146   1.273       .  A
O2145     Ni2156   1.926       .  S
C2146      O2152   1.302       .  A
H2148      O2149   0.966       .  S
O2149     Ni2157   1.896       .  S
O2149     Ni2151   1.888       .  S
O2149     Ni2156   1.921       .  S
O2150     Ni2151   1.928       .  S
Ni2151     O2155   1.890       .  S
Ni2151     O2153   1.871       .  S
O2152     Ni2157   1.978       .  S
C2154      O2155   1.261       .  A
O2159      C2180   1.281   1_554  A
O2160     Ni2183   1.940       .  S
O2160      C2169   1.291       .  A
O2161     Ni2165   1.918   1_556  S
O2161     Ni2183   1.916       .  S
O2161     Ni2177   1.917   1_655  S
O2161      H2184   0.965       .  S
C2162      O2179   1.254       .  A
C2162      O2171   1.268       .  A
C2162      C2250   1.426       .  S
O2163     Ni2182   1.901       .  S
O2163      C2169   1.266       .  A
O2164     Ni2182   1.872       .  S
O2164      C2166   1.261       .  A
Ni2165     O2168   1.964       .  S
Ni2165     O2170   1.903       .  S
C2166      O2176   1.275       .  A
C2166      C2199   1.426       .  S
O2167     Ni2183   1.935       .  S
O2167      C2173   1.271       .  A
O2168      C2173   1.282   1_554  A
O2170      C2172   1.273   1_554  A
C2172      O2178   1.301       .  A
H2174      O2175   0.966   1_455  S
O2175     Ni2183   1.897       .  S
O2175     Ni2177   1.889   1_655  S
O2175     Ni2182   1.921       .  S
O2176     Ni2177   1.928   1_655  S
O2178     Ni2183   1.977       .  S
C2180      O2181   1.262       .  A
O2185     Ni2191   1.901       .  S
O2185      C2206   1.266       .  A
O2186     Ni2209   1.890       .  S
O2186      C2195   1.261       .  A
O2187     Ni2191   1.921       .  S
O2187     Ni2209   1.888       .  S
O2187     Ni2203   1.896       .  S
O2187      H2210   0.966       .  S
C2188      O2205   1.271       .  A
C2188      O2197   1.282       .  A
C2188      C2630   1.507   1_545  S
O2189     Ni2208   1.972       .  S
O2189      C2195   1.281       .  A
O2190     Ni2208   1.903       .  S
O2190      C2192   1.273       .  A
Ni2191     O2194   1.926       .  S
Ni2191     O2196   1.872       .  S
C2192      O2202   1.301       .  A
O2193     Ni2209   1.871       .  S
O2193      C2199   1.254       .  A
O2194      C2199   1.268       .  A
O2196      C2198   1.261       .  A
O2197     Ni2208   1.965       .  S
C2198      O2204   1.275       .  A
H2200      O2201   0.965       .  S
O2201     Ni2209   1.917       .  S
O2201     Ni2203   1.916       .  S
O2201     Ni2208   1.918       .  S
O2202     Ni2203   1.977       .  S
Ni2203     O2207   1.940       .  S
Ni2203     O2205   1.935       .  S
O2204     Ni2209   1.928       .  S
C2206      O2207   1.291       .  A
C2206      C2232   1.472       .  S
O2211     Ni3049   1.901   1_545  S
O2211      C2232   1.266       .  A
O2212     Ni2235   1.891       .  S
O2212      C2221   1.262       .  A
O2213     Ni2217   1.921       .  S
O2213     Ni2235   1.889       .  S
O2213     Ni2229   1.897       .  S
O2213      H2236   0.966       .  S
C2214      O2231   1.271       .  A
C2214      O2223   1.282   1_556  A
O2215     Ni2234   1.972       .  S
O2215      C2221   1.281   1_554  A
O2216     Ni2234   1.903       .  S
O2216      C3050   1.273   1_554  A
Ni2217     O3043   1.901       .  S
Ni2217     O2220   1.926       .  S
Ni2217     O2222   1.872       .  S
C2218      O3048   1.273   1_556  A
C2218      O2228   1.301   1_565  A
C2218      C2848   1.490   1_566  S
O2219     Ni2235   1.871       .  S
O2219      C2225   1.254       .  A
O2220      C2225   1.268       .  A
C2221      C2273   1.484       .  S
O2222      C2224   1.261       .  A
O2223     Ni2234   1.964       .  S
C2224      O2230   1.275       .  A
H2226      O2227   0.965       .  S
O2227     Ni2235   1.917       .  S
O2227     Ni2229   1.916       .  S
O2227     Ni2234   1.918   1_556  S
O2228     Ni3061   1.977   1_545  S
Ni2229     O3060   1.977       .  S
Ni2229     O3065   1.940       .  S
Ni2229     O2231   1.935       .  S
O2230     Ni2235   1.928       .  S
C2232      O2233   1.291       .  A
O2233     Ni3061   1.940   1_545  S
O2237     Ni2243   1.901       .  S
O2237      C2258   1.266       .  A
O2238     Ni2261   1.890       .  S
O2238      C2247   1.261       .  A
O2239     Ni2243   1.921       .  S
O2239     Ni2261   1.888       .  S
O2239     Ni2255   1.897       .  S
O2239      H2262   0.966       .  S
C2240      O2257   1.271       .  A
C2240      O2249   1.282       .  A
O2241     Ni2260   1.972       .  S
O2241      C2247   1.281       .  A
O2242     Ni2260   1.903       .  S
O2242      C2244   1.273       .  A
Ni2243     O2246   1.926       .  S
Ni2243     O2248   1.872       .  S
C2244      O2254   1.301       .  A
O2245     Ni2261   1.871       .  S
O2245      C2251   1.254       .  A
O2246      C2251   1.268       .  A
O2248      C2250   1.261       .  A
O2249     Ni2260   1.965       .  S
C2250      O2256   1.275       .  A
H2252      O2253   0.965       .  S
O2253     Ni2261   1.917       .  S
O2253     Ni2255   1.915       .  S
O2253     Ni2260   1.918       .  S
O2254     Ni2255   1.977       .  S
Ni2255     O2259   1.939       .  S
Ni2255     O2257   1.935       .  S
O2256     Ni2261   1.928       .  S
C2258      O2259   1.291       .  A
C2258      C2284   1.471       .  S
O2263     Ni2269   1.901       .  S
O2263      C2284   1.266       .  A
O2264     Ni2287   1.890       .  S
O2264      C2273   1.261       .  A
O2265     Ni2269   1.921       .  S
O2265     Ni2287   1.888       .  S
O2265     Ni2281   1.896       .  S
O2265      H2288   0.966       .  S
C2266      O2283   1.271       .  A
C2266      O2275   1.282   1_556  A
O2267     Ni2286   1.972       .  S
O2267      C2273   1.281   1_554  A
O2268     Ni2286   1.903       .  S
O2268      C2270   1.273   1_554  A
Ni2269     O2272   1.927       .  S
Ni2269     O2274   1.872       .  S
C2270      O2280   1.301       .  A
O2271     Ni2287   1.871       .  S
O2271      C2277   1.254       .  A
O2272      C2277   1.268       .  A
O2274      C2276   1.261       .  A
O2275     Ni2286   1.965       .  S
C2276      O2282   1.275       .  A
H2278      O2279   0.965       .  S
O2279     Ni2287   1.917       .  S
O2279     Ni2281   1.915       .  S
O2279     Ni2286   1.917   1_556  S
O2280     Ni2281   1.977       .  S
Ni2281     O2285   1.939       .  S
Ni2281     O2283   1.935       .  S
O2282     Ni2287   1.929       .  S
C2284      O2285   1.291       .  A
O2289     Ni2295   1.901       .  S
O2289      C2310   1.266       .  A
O2290     Ni2313   1.890       .  S
O2290      C2299   1.261       .  A
O2291     Ni2295   1.921       .  S
O2291     Ni2313   1.888       .  S
O2291     Ni2307   1.896       .  S
O2291      H2314   0.966       .  S
C2292      O2309   1.271       .  A
C2292      O2301   1.282       .  A
O2293     Ni2312   1.972       .  S
O2293      C2299   1.281       .  A
O2294     Ni2312   1.903       .  S
O2294      C2296   1.273       .  A
Ni2295     O2298   1.927       .  S
Ni2295     O2300   1.872       .  S
C2296      O2306   1.301       .  A
O2297      C2303   1.254       .  A
C2299      C2351   1.483       .  S
O2300      C2302   1.261       .  A
O2301     Ni2312   1.965       .  S
C2302      O2308   1.275       .  A
C2302      C2422   1.427       .  S
C2303      C2478   1.427       .  S
H2304      O2305   0.965       .  S
O2305     Ni2313   1.917       .  S
O2305     Ni2307   1.915       .  S
O2305     Ni2312   1.917       .  S
O2306     Ni2307   1.977       .  S
Ni2307     O2311   1.939       .  S
Ni2307     O2309   1.935       .  S
O2308     Ni2313   1.929       .  S
C2310      O2311   1.291       .  A
C2310      C2336   1.471       .  S
O2315     Ni2321   1.901       .  S
O2315      C2336   1.266       .  A
O2316     Ni2339   1.890       .  S
O2316      C2325   1.261       .  A
O2317     Ni2321   1.921       .  S
O2317     Ni2339   1.888       .  S
O2317     Ni2333   1.897       .  S
O2317      H2340   0.966       .  S
C2318      O2335   1.271       .  A
C2318      O2327   1.282       .  A
O2319     Ni2338   1.972       .  S
O2319      C2325   1.281       .  A
O2320     Ni2338   1.903       .  S
O2320      C2322   1.273       .  A
Ni2321     O2324   1.926       .  S
Ni2321     O2326   1.872       .  S
C2322      O2332   1.301       .  A
O2323     Ni2339   1.871       .  S
O2323      C2329   1.254       .  A
O2324      C2329   1.268       .  A
C2325      C2377   1.484       .  S
O2326      C2328   1.261       .  A
O2327     Ni2338   1.965       .  S
C2328      O2334   1.275       .  A
C2328      C2448   1.426       .  S
C2329      C2400   1.427       .  S
H2330      O2331   0.965       .  S
O2331     Ni2339   1.917       .  S
O2331     Ni2333   1.915       .  S
O2331     Ni2338   1.918       .  S
O2332     Ni2333   1.977       .  S
Ni2333     O2337   1.939       .  S
Ni2333     O2335   1.935       .  S
O2334     Ni2339   1.928       .  S
C2336      O2337   1.291       .  A
O2341     Ni3179   1.901       .  S
O2341      C2362   1.266       .  A
O2342      C2351   1.262       .  A
O2343     Ni2347   1.921       .  S
O2343     Ni2365   1.889   1_655  S
O2343     Ni2359   1.897       .  S
O2343      H2366   0.966   1_645  S
C2344      O2361   1.271       .  A
C2344      O2353   1.282       .  A
O2345      C2351   1.281       .  A
O2346     Ni2364   1.903       .  S
O2346      C3180   1.273       .  A
Ni2347     O3173   1.901   1_545  S
Ni2347     O2352   1.872       .  S
C2348      O3178   1.273       .  A
C2348      O2358   1.301       .  A
O2349      C2355   1.254       .  A
O2350      C2355   1.268       .  A
O2352      C2354   1.261       .  A
O2353     Ni2364   1.965       .  S
C2354      O2360   1.275       .  A
C2354      C2474   1.426       .  S
C2355      C2426   1.426       .  S
H2356      O2357   0.965       .  S
O2357     Ni2365   1.917   1_655  S
O2357     Ni2359   1.916       .  S
O2357     Ni2364   1.918       .  S
O2358     Ni3191   1.977       .  S
Ni2359     O3190   1.977   1_545  S
Ni2359     O3195   1.940   1_545  S
Ni2359     O2361   1.935       .  S
O2360     Ni2365   1.928   1_655  S
C2362      O2363   1.291       .  A
C2362      C2388   1.472       .  S
O2363     Ni3191   1.940       .  S
O2367     Ni2373   1.901       .  S
O2367      C2388   1.266       .  A
O2368     Ni2391   1.890       .  S
O2368      C2377   1.261       .  A
O2369     Ni2373   1.921       .  S
O2369     Ni2391   1.888       .  S
O2369     Ni2385   1.896       .  S
O2369      H2392   0.966       .  S
C2370      O2387   1.271       .  A
C2370      O2379   1.282       .  A
C2370      C2786   1.507       .  S
O2371     Ni2390   1.972       .  S
O2371      C2377   1.281       .  A
O2372     Ni2390   1.903       .  S
O2372      C2374   1.273       .  A
Ni2373     O2376   1.926       .  S
Ni2373     O2378   1.872       .  S
C2374      O2384   1.302       .  A
O2375     Ni2391   1.871       .  S
O2375      C2381   1.254       .  A
O2376      C2381   1.268       .  A
O2378      C2380   1.261       .  A
O2379     Ni2390   1.965       .  S
C2380      O2386   1.275       .  A
C2380      C2396   1.427       .  S
C2381      C2452   1.426       .  S
H2382      O2383   0.965       .  S
O2383     Ni2391   1.917       .  S
O2383     Ni2385   1.916       .  S
O2383     Ni2390   1.918       .  S
O2384     Ni2385   1.978       .  S
Ni2385     O2389   1.940       .  S
Ni2385     O2387   1.935       .  S
O2386     Ni2391   1.928       .  S
C2388      O2389   1.291       .  A
O2393     Ni2399   1.972       .  S
O2393      C2414   1.281       .  A
O2394     Ni3249   1.939   1_545  S
O2394      C2403   1.291       .  A
O2395     Ni2399   1.917       .  S
O2395     Ni2417   1.915       .  S
O2395     Ni2411   1.917       .  S
O2395      H2418   0.965       .  S
C2396      O2413   1.254       .  A
C2396      O2405   1.268       .  A
O2397     Ni3248   1.901   1_545  S
O2397      C2403   1.266       .  A
O2398     Ni2416   1.872       .  S
O2398      C2400   1.261       .  A
Ni2399     O2402   1.965       .  S
Ni2399     O2404   1.903       .  S
C2400      O2410   1.275       .  A
O2401     Ni2417   1.935       .  S
O2401      C2407   1.271       .  A
O2402      C2407   1.282       .  A
C2403      C2429   1.471       .  S
O2404      C3238   1.273       .  A
O2405     Ni2416   1.927       .  S
C2406      O3236   1.273       .  A
C2406      O2412   1.301   1_565  A
C2406      C2608   1.490   1_565  S
H2408      O2409   0.966       .  S
O2409     Ni2417   1.896       .  S
O2409     Ni2411   1.888       .  S
O2409     Ni2416   1.921       .  S
O2410     Ni2411   1.929       .  S
Ni2411     O2415   1.890       .  S
Ni2411     O2413   1.871       .  S
O2412     Ni3249   1.977   1_545  S
C2414      O2415   1.261       .  A
C2414      C2466   1.483       .  S
Ni2416     O3229   1.901       .  S
Ni2417     O3226   1.939       .  S
Ni2417     O3244   1.977       .  S
O2419     Ni2425   1.972       .  S
O2419      C2440   1.281       .  A
O2420     Ni2443   1.939       .  S
O2420      C2429   1.291       .  A
O2421     Ni2425   1.918       .  S
O2421     Ni2443   1.915       .  S
O2421     Ni2437   1.917       .  S
O2421      H2444   0.965       .  S
C2422      O2439   1.254       .  A
C2422      O2431   1.268       .  A
O2423     Ni2442   1.901       .  S
O2423      C2429   1.266       .  A
O2424     Ni2442   1.872       .  S
O2424      C2426   1.261       .  A
Ni2425     O2428   1.965       .  S
Ni2425     O2430   1.903       .  S
C2426      O2436   1.275       .  A
O2427     Ni2443   1.935       .  S
O2427      C2433   1.271       .  A
O2428      C2433   1.282       .  A
O2430      C2432   1.273       .  A
O2431     Ni2442   1.926       .  S
C2432      O2438   1.301       .  A
C2433      C2823   1.507   1_545  S
H2434      O2435   0.966       .  S
O2435     Ni2443   1.897       .  S
O2435     Ni2437   1.888       .  S
O2435     Ni2442   1.921       .  S
O2436     Ni2437   1.928       .  S
Ni2437     O2441   1.890       .  S
Ni2437     O2439   1.871       .  S
O2438     Ni2443   1.977       .  S
C2440      O2441   1.261       .  A
O2445     Ni2451   1.972       .  S
O2445      C2466   1.281       .  A
O2446     Ni2469   1.940       .  S
O2446      C2455   1.291       .  A
O2447     Ni2451   1.918       .  S
O2447     Ni2469   1.916       .  S
O2447     Ni2463   1.917       .  S
O2447      H2470   0.965       .  S
C2448      O2465   1.254       .  A
C2448      O2457   1.268       .  A
O2449     Ni2468   1.901       .  S
O2449      C2455   1.266       .  A
O2450     Ni2468   1.872       .  S
O2450      C2452   1.261       .  A
Ni2451     O2454   1.965       .  S
Ni2451     O2456   1.903       .  S
C2452      O2462   1.275       .  A
O2453     Ni2469   1.935       .  S
O2453      C2459   1.271       .  A
O2454      C2459   1.282       .  A
C2455      C2481   1.472       .  S
O2456      C2458   1.273       .  A
O2457     Ni2468   1.926       .  S
C2458      O2464   1.301       .  A
H2460      O2461   0.966       .  S
O2461     Ni2469   1.897       .  S
O2461     Ni2463   1.889       .  S
O2461     Ni2468   1.921       .  S
O2462     Ni2463   1.928       .  S
Ni2463     O2467   1.891       .  S
Ni2463     O2465   1.871       .  S
O2464     Ni2469   1.977       .  S
C2466      O2467   1.262       .  A
O2471     Ni2477   1.972       .  S
O2471      C2492   1.281       .  A
O2472     Ni2495   1.940       .  S
O2472      C2481   1.291       .  A
O2473     Ni2477   1.918       .  S
O2473     Ni2495   1.916       .  S
O2473     Ni2489   1.917       .  S
O2473      H2496   0.965       .  S
C2474      O2491   1.254       .  A
C2474      O2483   1.268       .  A
O2475     Ni2494   1.901       .  S
O2475      C2481   1.266       .  A
O2476     Ni2494   1.872       .  S
O2476      C2478   1.261       .  A
Ni2477     O2480   1.965       .  S
Ni2477     O2482   1.903       .  S
C2478      O2488   1.275       .  A
O2479     Ni2495   1.935       .  S
O2479      C2485   1.271       .  A
O2480      C2485   1.282       .  A
O2482      C2484   1.273       .  A
O2483     Ni2494   1.926       .  S
C2484      O2490   1.302       .  A
H2486      O2487   0.966       .  S
O2487     Ni2495   1.896       .  S
O2487     Ni2489   1.889       .  S
O2487     Ni2494   1.921       .  S
O2488     Ni2489   1.928       .  S
Ni2489     O2493   1.890       .  S
Ni2489     O2491   1.871       .  S
O2490     Ni2495   1.978       .  S
C2492      O2493   1.261       .  A
O2497     Ni2503   1.972       .  S
O2497      C2518   1.281       .  A
O2498      C2507   1.291       .  A
O2499     Ni2503   1.918       .  S
O2499     Ni2521   1.916       .  S
O2499     Ni2515   1.917       .  S
O2499      H2522   0.965       .  S
C2500      O2517   1.254       .  A
C2500      C2640   1.426       .  S
O2501      C2507   1.266       .  A
O2502     Ni2520   1.872       .  S
O2502      C2504   1.261       .  A
Ni2503     O2506   1.964       .  S
Ni2503     O2508   1.903       .  S
C2504      O2514   1.275       .  A
C2504      C2589   1.426       .  S
O2505     Ni2521   1.935       .  S
O2505      C2511   1.271       .  A
O2506      C2511   1.282       .  A
C2507      C2533   1.472       .  S
O2509     Ni2520   1.926       .  S
C2510      O2516   1.301       .  A
C2511      C3239   1.507       .  S
H2512      O2513   0.966   1_545  S
O2513     Ni2521   1.897       .  S
O2513     Ni2515   1.889       .  S
O2513     Ni2520   1.921       .  S
O2514     Ni2515   1.928       .  S
Ni2515     O2519   1.891       .  S
C2518      O2519   1.262       .  A
C2518      C2674   1.484       .  S
O2523     Ni2529   1.972       .  S
O2523      C2544   1.281       .  A
O2524     Ni2547   1.940       .  S
O2524      C2533   1.291       .  A
O2525     Ni2529   1.918       .  S
O2525     Ni2547   1.916       .  S
O2525     Ni2541   1.917       .  S
O2525      H2548   0.965       .  S
C2526      O2543   1.254       .  A
C2526      O2535   1.268       .  A
C2526      C2562   1.426       .  S
O2527     Ni2546   1.901       .  S
O2527      C2533   1.266       .  A
O2528     Ni2546   1.872       .  S
O2528      C2530   1.261       .  A
Ni2529     O2532   1.965       .  S
Ni2529     O2534   1.903       .  S
C2530      O2540   1.275       .  A
C2530      C2615   1.426       .  S
O2531     Ni2547   1.935       .  S
O2531      C2537   1.271       .  A
O2532      C2537   1.282       .  A
O2534      C2536   1.273       .  A
O2535     Ni2546   1.926       .  S
C2536      O2542   1.301       .  A
C2536      C3076   1.490       .  S
H2538      O2539   0.966       .  S
O2539     Ni2547   1.896       .  S
O2539     Ni2541   1.889       .  S
O2539     Ni2546   1.921       .  S
O2540     Ni2541   1.928       .  S
Ni2541     O2545   1.890       .  S
Ni2541     O2543   1.871       .  S
O2542     Ni2547   1.977       .  S
C2544      O2545   1.261       .  A
C2544      C2700   1.484       .  S
O2549     Ni2555   1.901       .  S
O2549      C2570   1.266       .  A
O2550     Ni2573   1.891       .  S
O2550      C2559   1.262       .  A
O2551     Ni2555   1.921       .  S
O2551     Ni2573   1.889       .  S
O2551     Ni2567   1.897       .  S
O2551      H2574   0.966       .  S
C2552      O2569   1.271       .  A
C2552      O2561   1.282       .  A
C2552      C3124   1.507       .  S
O2553     Ni2572   1.972       .  S
O2553      C2559   1.281       .  A
O2554     Ni2572   1.903       .  S
O2554      C2556   1.273       .  A
Ni2555     O2558   1.926       .  S
Ni2555     O2560   1.872       .  S
C2556      O2566   1.301       .  A
C2556      C3290   1.490       .  S
O2557     Ni2573   1.871       .  S
O2557      C2563   1.254       .  A
O2558      C2563   1.268       .  A
C2559      C2611   1.484       .  S
O2560      C2562   1.261       .  A
O2561     Ni2572   1.965       .  S
C2562      O2568   1.275       .  A
C2563      C2686   1.426       .  S
H2564      O2565   0.965       .  S
O2565     Ni2573   1.917       .  S
O2565     Ni2567   1.916       .  S
O2565     Ni2572   1.918       .  S
O2566     Ni2567   1.977       .  S
Ni2567     O2571   1.940       .  S
Ni2567     O2569   1.935       .  S
O2568     Ni2573   1.928       .  S
C2570      O2571   1.291       .  A
C2570      C2596   1.472       .  S
O2575     Ni2581   1.901       .  S
O2575      C2596   1.266       .  A
O2576     Ni2599   1.890       .  S
O2576      C2585   1.261       .  A
O2577     Ni2581   1.921       .  S
O2577     Ni2599   1.889       .  S
O2577     Ni2593   1.896       .  S
O2577      H2600   0.966       .  S
C2578      O2595   1.271       .  A
C2578      O2587   1.282       .  A
C2578      C3072   1.507       .  S
O2579     Ni2598   1.972       .  S
O2579      C2585   1.281       .  A
O2580     Ni2598   1.903       .  S
O2580      C2582   1.273       .  A
Ni2581     O2584   1.926       .  S
Ni2581     O2586   1.872       .  S
C2582      O2592   1.301       .  A
C2582      C2926   1.490       .  S
O2583     Ni2599   1.871       .  S
O2583      C2589   1.254       .  A
O2584      C2589   1.268       .  A
O2586      C2588   1.261       .  A
O2587     Ni2598   1.965       .  S
C2588      O2594   1.275       .  A
C2588      C2656   1.426       .  S
H2590      O2591   0.965       .  S
O2591     Ni2599   1.917       .  S
O2591     Ni2593   1.916       .  S
O2591     Ni2598   1.918       .  S
O2592     Ni2593   1.977       .  S
Ni2593     O2597   1.940       .  S
Ni2593     O2595   1.935       .  S
O2594     Ni2599   1.928       .  S
C2596      O2597   1.291       .  A
O2601      C2622   1.266       .  A
O2602     Ni2625   1.890       .  S
O2602      C2611   1.261       .  A
O2603     Ni2607   1.921       .  S
O2603     Ni2625   1.888       .  S
O2603     Ni2619   1.896       .  S
O2603      H2626   0.966       .  S
C2604      O2621   1.271       .  A
C2604      O2613   1.282       .  A
C2604      C3176   1.507       .  S
O2605     Ni2624   1.972       .  S
O2605      C2611   1.281       .  A
O2606     Ni2624   1.903       .  S
Ni2607     O2610   1.926       .  S
Ni2607     O2612   1.872       .  S
C2608      O2618   1.301   1_545  A
O2609     Ni2625   1.871       .  S
O2609      C2615   1.254       .  A
O2610      C2615   1.268       .  A
O2612      C2614   1.261       .  A
O2613     Ni2624   1.965       .  S
C2614      O2620   1.275       .  A
C2614      C2682   1.427       .  S
H2616      O2617   0.965       .  S
O2617     Ni2625   1.916       .  S
O2617     Ni2619   1.915       .  S
O2617     Ni2624   1.917       .  S
Ni2619     O2621   1.935       .  S
O2620     Ni2625   1.929       .  S
C2622      O2623   1.291       .  A
C2622      C2648   1.472       .  S
O2627     Ni2633   1.901       .  S
O2627      C2648   1.266       .  A
O2628     Ni2651   1.890       .  S
O2628      C2637   1.261       .  A
O2629     Ni2633   1.921       .  S
O2629     Ni2651   1.888       .  S
O2629     Ni2645   1.897       .  S
O2629      H2652   0.966       .  S
C2630      O2647   1.271       .  A
C2630      O2639   1.282       .  A
O2631     Ni2650   1.972       .  S
O2631      C2637   1.281       .  A
O2632     Ni2650   1.903       .  S
O2632      C2634   1.273       .  A
Ni2633     O2636   1.926       .  S
Ni2633     O2638   1.872       .  S
C2634      O2644   1.301       .  A
C2634      C2978   1.490       .  S
O2635     Ni2651   1.871       .  S
O2635      C2641   1.254       .  A
O2636      C2641   1.268       .  A
O2638      C2640   1.261       .  A
O2639     Ni2650   1.965       .  S
C2640      O2646   1.275       .  A
C2641      C2660   1.427       .  S
H2642      O2643   0.965       .  S
O2643     Ni2651   1.917       .  S
O2643     Ni2645   1.916       .  S
O2643     Ni2650   1.918       .  S
O2644     Ni2645   1.977       .  S
Ni2645     O2649   1.940       .  S
Ni2645     O2647   1.935       .  S
O2646     Ni2651   1.928       .  S
C2648      O2649   1.291       .  A
O2653      C2674   1.281       .  A
O2654     Ni2677   1.939       .  S
O2654      C2663   1.291       .  A
O2655     Ni2659   1.917       .  S
O2655     Ni2677   1.915       .  S
O2655     Ni2671   1.916   1_655  S
O2655      H2678   0.965       .  S
C2656      O2673   1.254       .  A
C2656      O2665   1.268       .  A
O2657     Ni2676   1.901       .  S
O2657      C2663   1.266       .  A
O2658     Ni2676   1.872       .  S
O2658      C2660   1.261       .  A
Ni2659     O2662   1.965       .  S
Ni2659     O2664   1.903       .  S
C2660      O2670   1.275       .  A
O2661     Ni2677   1.935       .  S
O2661      C2667   1.271       .  A
O2662      C2667   1.282       .  A
C2663      C2689   1.471       .  S
O2664      C2666   1.273       .  A
C2666      O2672   1.301       .  A
C2667      C3291   1.507       .  S
H2668      O2669   0.966   1_455  S
O2669     Ni2677   1.896       .  S
O2669     Ni2671   1.888   1_655  S
O2669     Ni2676   1.921       .  S
O2670     Ni2671   1.929   1_655  S
O2672     Ni2677   1.977       .  S
C2674      O2675   1.261       .  A
O2679     Ni2685   1.972       .  S
O2679      C2700   1.281       .  A
O2680     Ni2703   1.939       .  S
O2680      C2689   1.291       .  A
O2681     Ni2685   1.918       .  S
O2681     Ni2703   1.915       .  S
O2681     Ni2697   1.917       .  S
O2681      H2704   0.965       .  S
C2682      O2699   1.254       .  A
C2682      O2691   1.268       .  A
O2683     Ni2702   1.901       .  S
O2683      C2689   1.266       .  A
O2684     Ni2702   1.872       .  S
O2684      C2686   1.261       .  A
Ni2685     O2688   1.965       .  S
Ni2685     O2690   1.903       .  S
C2686      O2696   1.275       .  A
O2687     Ni2703   1.935       .  S
O2687      C2693   1.271       .  A
O2688      C2693   1.282       .  A
O2690      C2692   1.273       .  A
O2691     Ni2702   1.926       .  S
C2692      O2698   1.301       .  A
C2692      C3024   1.490       .  S
C2693      C2979   1.507       .  S
H2694      O2695   0.966       .  S
O2695     Ni2703   1.897       .  S
O2695     Ni2697   1.888       .  S
O2695     Ni2702   1.921       .  S
O2696     Ni2697   1.928       .  S
Ni2697     O2701   1.890       .  S
Ni2697     O2699   1.871       .  S
O2698     Ni2703   1.977       .  S
C2700      O2701   1.261       .  A
O2705     Ni2711   1.972       .  S
O2705      C2726   1.281       .  A
O2706     Ni2729   1.939       .  S
O2706      C2715   1.291       .  A
O2707     Ni2711   1.918       .  S
O2707     Ni2729   1.915       .  S
O2707     Ni2723   1.917       .  S
O2707      H2730   0.965       .  S
C2708      O2725   1.254       .  A
C2708      O2717   1.268       .  A
C2708      C2770   1.427       .  S
O2709     Ni2728   1.901       .  S
O2709      C2715   1.266       .  A
O2710     Ni2728   1.872       .  S
O2710      C2712   1.261       .  A
Ni2711     O2714   1.965       .  S
Ni2711     O2716   1.903       .  S
C2712      O2722   1.275       .  A
C2712      C2901   1.426       .  S
O2713     Ni2729   1.935       .  S
O2713      C2719   1.271       .  A
O2714      C2719   1.282       .  A
C2715      C2741   1.471       .  S
O2716      C2718   1.273       .  A
O2717     Ni2728   1.926       .  S
C2718      O2724   1.301       .  A
C2718      C3206   1.490       .  S
C2719      C3317   1.507       .  S
H2720      O2721   0.966       .  S
O2721     Ni2729   1.897       .  S
O2721     Ni2723   1.888       .  S
O2721     Ni2728   1.921       .  S
O2722     Ni2723   1.928       .  S
Ni2723     O2727   1.890       .  S
Ni2723     O2725   1.871       .  S
O2724     Ni2729   1.977       .  S
C2726      O2727   1.261       .  A
O2731     Ni2737   1.972       .  S
O2731      C2752   1.281   1_556  A
O2732     Ni2755   1.939       .  S
O2732      C2741   1.291       .  A
O2733     Ni2737   1.918   1_554  S
O2733     Ni2755   1.915       .  S
O2733     Ni2749   1.916       .  S
O2733      H2756   0.965       .  S
C2734      O2751   1.254       .  A
C2734      O2743   1.268       .  A
C2734      C2874   1.426       .  S
O2735     Ni2754   1.901       .  S
O2735      C2741   1.266       .  A
O2736     Ni2754   1.872       .  S
O2736      C2738   1.261       .  A
Ni2737     O2740   1.965       .  S
Ni2737     O2742   1.903       .  S
C2738      O2748   1.275       .  A
C2738      C2797   1.427       .  S
O2739     Ni2755   1.935       .  S
O2739      C2745   1.271       .  A
O2740      C2745   1.282   1_556  A
O2742      C2744   1.273   1_556  A
O2743     Ni2754   1.927       .  S
C2744      O2750   1.301       .  A
C2744      C3102   1.490   1_554  S
C2745      C3005   1.507   1_554  S
H2746      O2747   0.966       .  S
O2747     Ni2755   1.896       .  S
O2747     Ni2749   1.888       .  S
O2747     Ni2754   1.921       .  S
O2748     Ni2749   1.929       .  S
Ni2749     O2753   1.890       .  S
Ni2749     O2751   1.871       .  S
O2750     Ni2755   1.977       .  S
C2752      O2753   1.261       .  A
C2752      C2856   1.484       .  S
O2757      C2778   1.266       .  A
O2758      C2767   1.261       .  A
O2759     Ni2763   1.921       .  S
O2759     Ni2781   1.888   1_655  S
O2759     Ni2775   1.896       .  S
O2759      H2782   0.966   1_665  S
C2760      O2777   1.271       .  A
C2760      O2769   1.282   1_554  A
C2760      C3046   1.507   1_554  S
O2761      C2767   1.281   1_556  A
O2762     Ni2780   1.903       .  S
Ni2763     O2768   1.872       .  S
C2764      O2774   1.301       .  A
O2765      C2771   1.254       .  A
O2766      C2771   1.268       .  A
C2767      C2897   1.484       .  S
O2768      C2770   1.261       .  A
O2769     Ni2780   1.965       .  S
C2770      O2776   1.275       .  A
C2771      C2816   1.426       .  S
H2772      O2773   0.965       .  S
O2773     Ni2781   1.916   1_655  S
O2773     Ni2775   1.915       .  S
O2773     Ni2780   1.918   1_554  S
Ni2775     O2777   1.935       .  S
O2776     Ni2781   1.929   1_655  S
C2778      O2779   1.291       .  A
C2778      C2804   1.471       .  S
O2783     Ni2789   1.901       .  S
O2783      C2804   1.266       .  A
O2784     Ni2807   1.890       .  S
O2784      C2793   1.261       .  A
O2785     Ni2789   1.921       .  S
O2785     Ni2807   1.888       .  S
O2785     Ni2801   1.897       .  S
O2785      H2808   0.966       .  S
C2786      O2803   1.271       .  A
C2786      O2795   1.282       .  A
O2787     Ni2806   1.972       .  S
O2787      C2793   1.281       .  A
O2788     Ni2806   1.903       .  S
O2788      C2790   1.273       .  A
Ni2789     O2792   1.926       .  S
Ni2789     O2794   1.872       .  S
C2790      O2800   1.301       .  A
C2790      C3316   1.490       .  S
O2791     Ni2807   1.871       .  S
O2791      C2797   1.254       .  A
O2792      C2797   1.268       .  A
C2793      C2871   1.484       .  S
O2794      C2796   1.261       .  A
O2795     Ni2806   1.965       .  S
C2796      O2802   1.275       .  A
C2796      C2838   1.426       .  S
H2798      O2799   0.965       .  S
O2799     Ni2807   1.917       .  S
O2799     Ni2801   1.915       .  S
O2799     Ni2806   1.918       .  S
O2800     Ni2801   1.977       .  S
Ni2801     O2805   1.939       .  S
Ni2801     O2803   1.935       .  S
O2802     Ni2807   1.928       .  S
C2804      O2805   1.291       .  A
O2809     Ni2815   1.972       .  S
O2809      C2830   1.281       .  A
O2810     Ni2833   1.940       .  S
O2810      C2819   1.291       .  A
O2811     Ni2815   1.918       .  S
O2811     Ni2833   1.916       .  S
O2811     Ni2827   1.916       .  S
O2811      H2834   0.965       .  S
C2812      O2829   1.254       .  A
C2812      O2821   1.268       .  A
C2812      C2900   1.426       .  S
O2813     Ni2832   1.901       .  S
O2813      C2819   1.266       .  A
O2814     Ni2832   1.872       .  S
O2814      C2816   1.261       .  A
Ni2815     O2818   1.965       .  S
Ni2815     O2820   1.903       .  S
C2816      O2826   1.275       .  A
O2817     Ni2833   1.935       .  S
O2817      C2823   1.271       .  A
O2818      C2823   1.282       .  A
C2819      C2845   1.472       .  S
O2820      C2822   1.273       .  A
O2821     Ni2832   1.926       .  S
C2822      O2828   1.301       .  A
C2822      C3154   1.490       .  S
H2824      O2825   0.966       .  S
O2825     Ni2833   1.896       .  S
O2825     Ni2827   1.889       .  S
O2825     Ni2832   1.921       .  S
O2826     Ni2827   1.928       .  S
Ni2827     O2831   1.890       .  S
Ni2827     O2829   1.871       .  S
O2828     Ni2833   1.977       .  S
C2830      O2831   1.261       .  A
O2835     Ni2841   1.972       .  S
O2835      C2856   1.281   1_556  A
O2836      C2845   1.291       .  A
O2837     Ni2841   1.918   1_554  S
O2837     Ni2859   1.916       .  S
O2837     Ni2853   1.917       .  S
O2837      H2860   0.965       .  S
C2838      O2855   1.254       .  A
C2838      O2847   1.268       .  A
O2839      C2845   1.266       .  A
O2840     Ni2858   1.872       .  S
O2840      C2842   1.261       .  A
Ni2841     O2844   1.965       .  S
Ni2841     O2846   1.903       .  S
C2842      O2852   1.275       .  A
C2842      C2875   1.426       .  S
O2843     Ni2859   1.935       .  S
O2843      C2849   1.271       .  A
O2844      C2849   1.282   1_556  A
O2847     Ni2858   1.926       .  S
C2848      O2854   1.301   1_545  A
C2849      C2953   1.507   1_554  S
H2850      O2851   0.966       .  S
O2851     Ni2859   1.897       .  S
O2851     Ni2853   1.889       .  S
O2851     Ni2858   1.921       .  S
O2852     Ni2853   1.928       .  S
Ni2853     O2857   1.891       .  S
Ni2853     O2855   1.871       .  S
C2856      O2857   1.262       .  A
O2861     Ni2867   1.901       .  S
O2861      C2882   1.266       .  A
O2862     Ni2885   1.890       .  S
O2862      C2871   1.261       .  A
O2863     Ni2867   1.921       .  S
O2863     Ni2885   1.889       .  S
O2863     Ni2879   1.896       .  S
O2863      H2886   0.966       .  S
C2864      O2881   1.271       .  A
C2864      O2873   1.282       .  A
C2864      C3150   1.507       .  S
O2865     Ni2884   1.972       .  S
O2865      C2871   1.281       .  A
O2866     Ni2884   1.903       .  S
O2866      C2868   1.273       .  A
Ni2867     O2870   1.926       .  S
Ni2867     O2872   1.872       .  S
C2868      O2878   1.301       .  A
C2868      C3264   1.490       .  S
O2869     Ni2885   1.871       .  S
O2869      C2875   1.254       .  A
O2870      C2875   1.268       .  A
O2872      C2874   1.261       .  A
O2873     Ni2884   1.965       .  S
C2874      O2880   1.275       .  A
H2876      O2877   0.965       .  S
O2877     Ni2885   1.916       .  S
O2877     Ni2879   1.916       .  S
O2877     Ni2884   1.918       .  S
O2878     Ni2879   1.977       .  S
Ni2879     O2883   1.940       .  S
Ni2879     O2881   1.935       .  S
O2880     Ni2885   1.928       .  S
C2882      O2883   1.291       .  A
C2882      C2908   1.472       .  S
O2887     Ni2893   1.901       .  S
O2887      C2908   1.266       .  A
O2888     Ni2911   1.891       .  S
O2888      C2897   1.262       .  A
O2889     Ni2893   1.921       .  S
O2889     Ni2911   1.889       .  S
O2889     Ni2905   1.897       .  S
O2889      H2912   0.966       .  S
C2890      O2907   1.271       .  A
C2890      O2899   1.282   1_554  A
C2890      C3098   1.507   1_554  S
O2891     Ni2910   1.972       .  S
O2891      C2897   1.281   1_556  A
O2892     Ni2910   1.903       .  S
O2892      C2894   1.273   1_556  A
Ni2893     O2896   1.926       .  S
Ni2893     O2898   1.872       .  S
C2894      O2904   1.301       .  A
O2895      C2901   1.254       .  A
O2898      C2900   1.261       .  A
O2899     Ni2910   1.965       .  S
C2900      O2906   1.275       .  A
H2902      O2903   0.965       .  S
O2903     Ni2911   1.917       .  S
O2903     Ni2905   1.916       .  S
O2903     Ni2910   1.918   1_554  S
O2904     Ni2905   1.977       .  S
Ni2905     O2909   1.940       .  S
Ni2905     O2907   1.935       .  S
O2906     Ni2911   1.928       .  S
C2908      O2909   1.291       .  A
O2913     Ni2919   1.972       .  S
O2913      C2934   1.281       .  A
O2914     Ni2937   1.939       .  S
O2914      C2923   1.291       .  A
O2915     Ni2919   1.918       .  S
O2915     Ni2937   1.915       .  S
O2915     Ni2931   1.917       .  S
O2915      H2938   0.965       .  S
C2916      O2933   1.254       .  A
C2916      O2925   1.268       .  A
C2916      C3108   1.427       .  S
O2917     Ni2936   1.901       .  S
O2917      C2923   1.266       .  A
O2918     Ni2936   1.872       .  S
O2918      C2920   1.261       .  A
Ni2919     O2922   1.965       .  S
Ni2919     O2924   1.903       .  S
C2920      O2930   1.275       .  A
C2920      C3057   1.426       .  S
O2921     Ni2937   1.935       .  S
O2921      C2927   1.271       .  A
O2922      C2927   1.282       .  A
C2923      C2949   1.471       .  S
O2924      C2926   1.273       .  A
O2925     Ni2936   1.926       .  S
C2926      O2932   1.301       .  A
H2928      O2929   0.966       .  S
O2929     Ni2937   1.897       .  S
O2929     Ni2931   1.888       .  S
O2929     Ni2936   1.921       .  S
O2930     Ni2931   1.928       .  S
Ni2931     O2935   1.890       .  S
Ni2931     O2933   1.871       .  S
O2932     Ni2937   1.977       .  S
C2934      O2935   1.261       .  A
C2934      C2986   1.484       .  S
O2939     Ni2945   1.972       .  S
O2939      C2960   1.281   1_554  A
O2940      C2949   1.291       .  A
O2941     Ni2945   1.917   1_556  S
O2941     Ni2963   1.915       .  S
O2941     Ni2957   1.917       .  S
O2941      H2964   0.965       .  S
C2942      O2959   1.254       .  A
C2942      C3030   1.426       .  S
O2943      C2949   1.266       .  A
O2944     Ni2962   1.872       .  S
O2944      C2946   1.261       .  A
Ni2945     O2948   1.965       .  S
Ni2945     O2950   1.903       .  S
C2946      O2956   1.275       .  A
C2946      C3083   1.427       .  S
O2947     Ni2963   1.935       .  S
O2947      C2953   1.271       .  A
O2948      C2953   1.282   1_554  A
O2951     Ni2962   1.927       .  S
C2952      O2958   1.301   1_545  A
H2954      O2955   0.966       .  S
O2955     Ni2963   1.896       .  S
O2955     Ni2957   1.888       .  S
O2955     Ni2962   1.921       .  S
O2956     Ni2957   1.929       .  S
Ni2957     O2961   1.890       .  S
C2960      O2961   1.261       .  A
C2960      C3012   1.484       .  S
O2965     Ni2971   1.972       .  S
O2965      C2986   1.281       .  A
O2966     Ni2989   1.940       .  S
O2966      C2975   1.291       .  A
O2967     Ni2971   1.918       .  S
O2967     Ni2989   1.916       .  S
O2967     Ni2983   1.917       .  S
O2967      H2990   0.965       .  S
C2968      O2985   1.254       .  A
C2968      O2977   1.268       .  A
C2968      C3056   1.426       .  S
O2969     Ni2988   1.901       .  S
O2969      C2975   1.266       .  A
O2970     Ni2988   1.872       .  S
O2970      C2972   1.261       .  A
Ni2971     O2974   1.965       .  S
Ni2971     O2976   1.903       .  S
C2972      O2982   1.275       .  A
C2972      C3109   1.426       .  S
O2973     Ni2989   1.935       .  S
O2973      C2979   1.271       .  A
O2974      C2979   1.282       .  A
C2975      C3001   1.472       .  S
O2976      C2978   1.273       .  A
O2977     Ni2988   1.926       .  S
C2978      O2984   1.302       .  A
H2980      O2981   0.966       .  S
O2981     Ni2989   1.896       .  S
O2981     Ni2983   1.888       .  S
O2981     Ni2988   1.921       .  S
O2982     Ni2983   1.928       .  S
Ni2983     O2987   1.890       .  S
Ni2983     O2985   1.871       .  S
O2984     Ni2989   1.978       .  S
C2986      O2987   1.261       .  A
O2991      C3012   1.281   1_554  A
O2992     Ni3015   1.940       .  S
O2992      C3001   1.291       .  A
O2993     Ni2997   1.918   1_556  S
O2993     Ni3015   1.916       .  S
O2993     Ni3009   1.917   1_655  S
O2993      H3016   0.965       .  S
C2994      O3011   1.254       .  A
C2994      O3003   1.268       .  A
C2994      C3082   1.426       .  S
O2995     Ni3014   1.901       .  S
O2995      C3001   1.266       .  A
O2996     Ni3014   1.872       .  S
O2996      C2998   1.261       .  A
Ni2997     O3000   1.965       .  S
Ni2997     O3002   1.903       .  S
C2998      O3008   1.275       .  A
C2998      C3031   1.426       .  S
O2999     Ni3015   1.935       .  S
O2999      C3005   1.271       .  A
O3000      C3005   1.282   1_554  A
O3002      C3004   1.273   1_554  A
C3004      O3010   1.301       .  A
H3006      O3007   0.966   1_455  S
O3007     Ni3015   1.897       .  S
O3007     Ni3009   1.889   1_655  S
O3007     Ni3014   1.921       .  S
O3008     Ni3009   1.928   1_655  S
O3010     Ni3015   1.977       .  S
C3012      O3013   1.262       .  A
O3017     Ni3023   1.901       .  S
O3017      C3038   1.266       .  A
O3018     Ni3041   1.890       .  S
O3018      C3027   1.261       .  A
O3019     Ni3023   1.921       .  S
O3019     Ni3041   1.888       .  S
O3019     Ni3035   1.896       .  S
O3019      H3042   0.966       .  S
C3020      O3037   1.271       .  A
C3020      O3029   1.282       .  A
O3021     Ni3040   1.972       .  S
O3021      C3027   1.281       .  A
O3022     Ni3040   1.903       .  S
O3022      C3024   1.273       .  A
Ni3023     O3026   1.926       .  S
Ni3023     O3028   1.872       .  S
C3024      O3034   1.301       .  A
O3025     Ni3041   1.871       .  S
O3025      C3031   1.254       .  A
O3026      C3031   1.268       .  A
O3028      C3030   1.261       .  A
O3029     Ni3040   1.965       .  S
C3030      O3036   1.275       .  A
H3032      O3033   0.965       .  S
O3033     Ni3041   1.917       .  S
O3033     Ni3035   1.916       .  S
O3033     Ni3040   1.918       .  S
O3034     Ni3035   1.977       .  S
Ni3035     O3039   1.940       .  S
Ni3035     O3037   1.935       .  S
O3036     Ni3041   1.928       .  S
C3038      O3039   1.291       .  A
C3038      C3064   1.472       .  S
O3043      C3064   1.266       .  A
O3044     Ni3067   1.891       .  S
O3044      C3053   1.262       .  A
O3045     Ni3049   1.921       .  S
O3045     Ni3067   1.889       .  S
O3045     Ni3061   1.897       .  S
O3045      H3068   0.966   1_565  S
C3046      O3063   1.271       .  A
C3046      O3055   1.282   1_556  A
O3047     Ni3066   1.972       .  S
O3047      C3053   1.281   1_554  A
O3048     Ni3066   1.903       .  S
Ni3049     O3052   1.926       .  S
Ni3049     O3054   1.872       .  S
C3050      O3060   1.301       .  A
O3051     Ni3067   1.871       .  S
O3051      C3057   1.254       .  A
O3052      C3057   1.268       .  A
C3053      C3105   1.484       .  S
O3054      C3056   1.261       .  A
O3055     Ni3066   1.964       .  S
C3056      O3062   1.275       .  A
H3058      O3059   0.965       .  S
O3059     Ni3067   1.917       .  S
O3059     Ni3061   1.916       .  S
O3059     Ni3066   1.918   1_556  S
Ni3061     O3063   1.935       .  S
O3062     Ni3067   1.928       .  S
C3064      O3065   1.291       .  A
O3069     Ni3075   1.901       .  S
O3069      C3090   1.266       .  A
O3070     Ni3093   1.890       .  S
O3070      C3079   1.261       .  A
O3071     Ni3075   1.921       .  S
O3071     Ni3093   1.888       .  S
O3071     Ni3087   1.897       .  S
O3071      H3094   0.966       .  S
C3072      O3089   1.271       .  A
C3072      O3081   1.282       .  A
O3073     Ni3092   1.972       .  S
O3073      C3079   1.281       .  A
O3074     Ni3092   1.903       .  S
O3074      C3076   1.273       .  A
Ni3075     O3078   1.926       .  S
Ni3075     O3080   1.872       .  S
C3076      O3086   1.301       .  A
O3077     Ni3093   1.871       .  S
O3077      C3083   1.254       .  A
O3078      C3083   1.268       .  A
O3080      C3082   1.261       .  A
O3081     Ni3092   1.965       .  S
C3082      O3088   1.275       .  A
H3084      O3085   0.965       .  S
O3085     Ni3093   1.917       .  S
O3085     Ni3087   1.915       .  S
O3085     Ni3092   1.918       .  S
O3086     Ni3087   1.977       .  S
Ni3087     O3091   1.939       .  S
Ni3087     O3089   1.935       .  S
O3088     Ni3093   1.928       .  S
C3090      O3091   1.291       .  A
C3090      C3116   1.471       .  S
O3095     Ni3101   1.901       .  S
O3095      C3116   1.266       .  A
O3096     Ni3119   1.890       .  S
O3096      C3105   1.261       .  A
O3097     Ni3101   1.921       .  S
O3097     Ni3119   1.888       .  S
O3097     Ni3113   1.896       .  S
O3097      H3120   0.966       .  S
C3098      O3115   1.271       .  A
C3098      O3107   1.282   1_556  A
O3099     Ni3118   1.972       .  S
O3099      C3105   1.281   1_554  A
O3100     Ni3118   1.903       .  S
O3100      C3102   1.273   1_554  A
Ni3101     O3104   1.927       .  S
Ni3101     O3106   1.872       .  S
C3102      O3112   1.301       .  A
O3103     Ni3119   1.871       .  S
O3103      C3109   1.254       .  A
O3104      C3109   1.268       .  A
O3106      C3108   1.261       .  A
O3107     Ni3118   1.965       .  S
C3108      O3114   1.275       .  A
H3110      O3111   0.965       .  S
O3111     Ni3119   1.917       .  S
O3111     Ni3113   1.915       .  S
O3111     Ni3118   1.917   1_556  S
O3112     Ni3113   1.977       .  S
Ni3113     O3117   1.939       .  S
Ni3113     O3115   1.935       .  S
O3114     Ni3119   1.929       .  S
C3116      O3117   1.291       .  A
O3121     Ni3127   1.901       .  S
O3121      C3142   1.266       .  A
O3122     Ni3145   1.890       .  S
O3122      C3131   1.261       .  A
O3123     Ni3127   1.921       .  S
O3123     Ni3145   1.888       .  S
O3123     Ni3139   1.896       .  S
O3123      H3146   0.966       .  S
C3124      O3141   1.271       .  A
C3124      O3133   1.282       .  A
O3125     Ni3144   1.972       .  S
O3125      C3131   1.281       .  A
O3126     Ni3144   1.903       .  S
O3126      C3128   1.273       .  A
Ni3127     O3130   1.927       .  S
Ni3127     O3132   1.872       .  S
C3128      O3138   1.301       .  A
O3129      C3135   1.254       .  A
C3131      C3183   1.483       .  S
O3132      C3134   1.261       .  A
O3133     Ni3144   1.965       .  S
C3134      O3140   1.275       .  A
C3134      C3254   1.427       .  S
C3135      C3310   1.427       .  S
H3136      O3137   0.965       .  S
O3137     Ni3145   1.917       .  S
O3137     Ni3139   1.915       .  S
O3137     Ni3144   1.917       .  S
O3138     Ni3139   1.977       .  S
Ni3139     O3143   1.939       .  S
Ni3139     O3141   1.935       .  S
O3140     Ni3145   1.929       .  S
C3142      O3143   1.291       .  A
C3142      C3168   1.471       .  S
O3147     Ni3153   1.901       .  S
O3147      C3168   1.266       .  A
O3148     Ni3171   1.890       .  S
O3148      C3157   1.261       .  A
O3149     Ni3153   1.921       .  S
O3149     Ni3171   1.888       .  S
O3149     Ni3165   1.897       .  S
O3149      H3172   0.966       .  S
C3150      O3167   1.271       .  A
C3150      O3159   1.282       .  A
O3151     Ni3170   1.972       .  S
O3151      C3157   1.281       .  A
O3152     Ni3170   1.903       .  S
O3152      C3154   1.273       .  A
Ni3153     O3156   1.926       .  S
Ni3153     O3158   1.872       .  S
C3154      O3164   1.301       .  A
O3155     Ni3171   1.871       .  S
O3155      C3161   1.254       .  A
O3156      C3161   1.268       .  A
C3157      C3209   1.484       .  S
O3158      C3160   1.261       .  A
O3159     Ni3170   1.965       .  S
C3160      O3166   1.275       .  A
C3160      C3280   1.426       .  S
C3161      C3232   1.427       .  S
H3162      O3163   0.965       .  S
O3163     Ni3171   1.917       .  S
O3163     Ni3165   1.915       .  S
O3163     Ni3170   1.918       .  S
O3164     Ni3165   1.977       .  S
Ni3165     O3169   1.939       .  S
Ni3165     O3167   1.935       .  S
O3166     Ni3171   1.928       .  S
C3168      O3169   1.291       .  A
O3173      C3194   1.266       .  A
O3174      C3183   1.262       .  A
O3175     Ni3179   1.921       .  S
O3175     Ni3197   1.889   1_655  S
O3175     Ni3191   1.897       .  S
O3175      H3198   0.966   1_655  S
C3176      O3193   1.271       .  A
C3176      O3185   1.282       .  A
O3177      C3183   1.281       .  A
O3178     Ni3196   1.903       .  S
Ni3179     O3184   1.872       .  S
C3180      O3190   1.301   1_545  A
O3181      C3187   1.254       .  A
O3182      C3187   1.268       .  A
O3184      C3186   1.261       .  A
O3185     Ni3196   1.965       .  S
C3186      O3192   1.275       .  A
C3186      C3306   1.426       .  S
C3187      C3258   1.426       .  S
H3188      O3189   0.965       .  S
O3189     Ni3197   1.917   1_655  S
O3189     Ni3191   1.916       .  S
O3189     Ni3196   1.918       .  S
Ni3191     O3193   1.935       .  S
O3192     Ni3197   1.928   1_655  S
C3194      O3195   1.291       .  A
C3194      C3220   1.472       .  S
O3199     Ni3205   1.901       .  S
O3199      C3220   1.266       .  A
O3200     Ni3223   1.890       .  S
O3200      C3209   1.261       .  A
O3201     Ni3205   1.921       .  S
O3201     Ni3223   1.888       .  S
O3201     Ni3217   1.896       .  S
O3201      H3224   0.966       .  S
C3202      O3219   1.271       .  A
C3202      O3211   1.282       .  A
O3203     Ni3222   1.972       .  S
O3203      C3209   1.281       .  A
O3204     Ni3222   1.903       .  S
O3204      C3206   1.273       .  A
Ni3205     O3208   1.926       .  S
Ni3205     O3210   1.872       .  S
C3206      O3216   1.302       .  A
O3207     Ni3223   1.871       .  S
O3207      C3213   1.254       .  A
O3208      C3213   1.268       .  A
O3210      C3212   1.261       .  A
O3211     Ni3222   1.965       .  S
C3212      O3218   1.275       .  A
C3212      C3228   1.427       .  S
C3213      C3284   1.426       .  S
H3214      O3215   0.965       .  S
O3215     Ni3223   1.917       .  S
O3215     Ni3217   1.916       .  S
O3215     Ni3222   1.918       .  S
O3216     Ni3217   1.978       .  S
Ni3217     O3221   1.940       .  S
Ni3217     O3219   1.935       .  S
O3218     Ni3223   1.928       .  S
C3220      O3221   1.291       .  A
O3225     Ni3231   1.972       .  S
O3225      C3246   1.281       .  A
O3226      C3235   1.291       .  A
O3227     Ni3231   1.917       .  S
O3227     Ni3249   1.915       .  S
O3227     Ni3243   1.917       .  S
O3227      H3250   0.965       .  S
C3228      O3245   1.254       .  A
C3228      O3237   1.268       .  A
O3229      C3235   1.266       .  A
O3230     Ni3248   1.872       .  S
O3230      C3232   1.261       .  A
Ni3231     O3234   1.965       .  S
Ni3231     O3236   1.903       .  S
C3232      O3242   1.275       .  A
O3233     Ni3249   1.935       .  S
O3233      C3239   1.271       .  A
O3234      C3239   1.282       .  A
C3235      C3261   1.471       .  S
O3237     Ni3248   1.927       .  S
C3238      O3244   1.301       .  A
H3240      O3241   0.966   1_545  S
O3241     Ni3249   1.896       .  S
O3241     Ni3243   1.888       .  S
O3241     Ni3248   1.921       .  S
O3242     Ni3243   1.929       .  S
Ni3243     O3247   1.890       .  S
Ni3243     O3245   1.871       .  S
C3246      O3247   1.261       .  A
C3246      C3298   1.483       .  S
O3251     Ni3257   1.972       .  S
O3251      C3272   1.281       .  A
O3252     Ni3275   1.939       .  S
O3252      C3261   1.291       .  A
O3253     Ni3257   1.918       .  S
O3253     Ni3275   1.915       .  S
O3253     Ni3269   1.917       .  S
O3253      H3276   0.965       .  S
C3254      O3271   1.254       .  A
C3254      O3263   1.268       .  A
O3255     Ni3274   1.901       .  S
O3255      C3261   1.266       .  A
O3256     Ni3274   1.872       .  S
O3256      C3258   1.261       .  A
Ni3257     O3260   1.965       .  S
Ni3257     O3262   1.903       .  S
C3258      O3268   1.275       .  A
O3259     Ni3275   1.935       .  S
O3259      C3265   1.271       .  A
O3260      C3265   1.282       .  A
O3262      C3264   1.273       .  A
O3263     Ni3274   1.926       .  S
C3264      O3270   1.301       .  A
H3266      O3267   0.966       .  S
O3267     Ni3275   1.897       .  S
O3267     Ni3269   1.888       .  S
O3267     Ni3274   1.921       .  S
O3268     Ni3269   1.928       .  S
Ni3269     O3273   1.890       .  S
Ni3269     O3271   1.871       .  S
O3270     Ni3275   1.977       .  S
C3272      O3273   1.261       .  A
O3277     Ni3283   1.972       .  S
O3277      C3298   1.281       .  A
O3278     Ni3301   1.940       .  S
O3278      C3287   1.291       .  A
O3279     Ni3283   1.918       .  S
O3279     Ni3301   1.916       .  S
O3279     Ni3295   1.917       .  S
O3279      H3302   0.965       .  S
C3280      O3297   1.254       .  A
C3280      O3289   1.268       .  A
O3281     Ni3300   1.901       .  S
O3281      C3287   1.266       .  A
O3282     Ni3300   1.872       .  S
O3282      C3284   1.261       .  A
Ni3283     O3286   1.965       .  S
Ni3283     O3288   1.903       .  S
C3284      O3294   1.275       .  A
O3285     Ni3301   1.935       .  S
O3285      C3291   1.271       .  A
O3286      C3291   1.282       .  A
C3287      C3313   1.472       .  S
O3288      C3290   1.273       .  A
O3289     Ni3300   1.926       .  S
C3290      O3296   1.301       .  A
H3292      O3293   0.966       .  S
O3293     Ni3301   1.897       .  S
O3293     Ni3295   1.889       .  S
O3293     Ni3300   1.921       .  S
O3294     Ni3295   1.928       .  S
Ni3295     O3299   1.891       .  S
Ni3295     O3297   1.871       .  S
O3296     Ni3301   1.977       .  S
C3298      O3299   1.262       .  A
O3303     Ni3309   1.972       .  S
O3303      C3324   1.281       .  A
O3304     Ni3327   1.940       .  S
O3304      C3313   1.291       .  A
O3305     Ni3309   1.918       .  S
O3305     Ni3327   1.916       .  S
O3305     Ni3321   1.917       .  S
O3305      H3328   0.965       .  S
C3306      O3323   1.254       .  A
C3306      O3315   1.268       .  A
O3307     Ni3326   1.901       .  S
O3307      C3313   1.266       .  A
O3308     Ni3326   1.872       .  S
O3308      C3310   1.261       .  A
Ni3309     O3312   1.965       .  S
Ni3309     O3314   1.903       .  S
C3310      O3320   1.275       .  A
O3311     Ni3327   1.935       .  S
O3311      C3317   1.271       .  A
O3312      C3317   1.282       .  A
O3314      C3316   1.273       .  A
O3315     Ni3326   1.926       .  S
C3316      O3322   1.302       .  A
H3318      O3319   0.966       .  S
O3319     Ni3327   1.896       .  S
O3319     Ni3321   1.889       .  S
O3319     Ni3326   1.921       .  S
O3320     Ni3321   1.928       .  S
Ni3321     O3325   1.890       .  S
Ni3321     O3323   1.871       .  S
O3322     Ni3327   1.978       .  S
C3324      O3325   1.261       .  A
