geometry optimzed in LAMMPS
_audit_creation_date              2020-12-01 
_audit_creation_method            'lammps2cif' 
_symmetry_space_group_name_H-M    'P1' 
_symmetry_Int_Tables_number       1 
_symmetry_cell_setting            triclinic 
loop_ 
_symmetry_equiv_pos_as_xyz 
  x,y,z 
_cell_length_a                    74.08337256 
_cell_length_b                    73.99034130445479 
_cell_length_c                    29.599879928822325 
_cell_angle_alpha                 90.1253224729223 
_cell_angle_beta                  90.10850051609238 
_cell_angle_gamma                 90.07875379845238 
loop_ 
_atom_site_label 
_atom_site_type_symbol 
_atom_site_fract_x 
_atom_site_fract_y 
_atom_site_fract_z 
_atom_site_charge 
O1          O  0.87933199  0.20886475  0.44896098    -0.82200
C2          C  0.86168800  0.25913306  0.57665018     0.97100
O3          O  0.87310249  0.24679506  0.57068942    -0.71400
O4          O  0.88367349  0.21568389  0.54032403    -0.74900
Al5        Al  0.88377824  0.23965835  0.51613763     1.49000
C6          C  0.87159508  0.20375139  0.54479518     0.92400
O7          O  0.82975260  0.21949456  0.47713025    -0.81200
O8          O  0.83961262  0.25182750  0.42580259    -0.74700
Al9        Al  0.85539829  0.21667942  0.46567575     1.90100
O10         O  0.82852965  0.24520078  0.51336256    -0.73800
O11         O  0.86573183  0.27169341  0.45666177    -0.73600
O12         O  0.85373841  0.26649224  0.54378659    -0.79300
O13         O  0.88894631  0.26412765  0.49804569    -0.77500
O14         O  0.86241629  0.23785627  0.48896259    -1.13600
O15         O  0.89662232  0.23220300  0.46404835    -0.72800
C16         C  0.89442195  0.21687170  0.44617755     0.97900
C17         C  0.82118253  0.23057214  0.50159379     0.94300
Al18       Al  0.84808427  0.25712836  0.48522159     1.55600
O19         O  0.85706025  0.20451085  0.52249074    -0.77500
C20         C  0.88166530  0.27456118  0.46963356     0.98400
C21         C  0.84577510  0.24121388  0.39613449     0.93300
O22         O  0.85352768  0.22668508  0.40706042    -0.82800
O23         O  0.62975865  0.21255021  0.60821882    -0.82200
C24         C  0.65508242  0.25621233  0.46401075     0.97100
O25         O  0.63890309  0.25158587  0.47116794    -0.71400
O26         O  0.63744942  0.21623300  0.47805563    -0.74900
Al27       Al  0.62846780  0.23521867  0.51417983     1.49000
C28         C  0.64105257  0.20064580  0.49265142     0.92400
O29         O  0.67733520  0.21334635  0.55665199    -0.81200
O30         O  0.65585619  0.25514448  0.61872834    -0.74700
Al31       Al  0.65306991  0.21429602  0.58065268     1.90100
O32         O  0.68313490  0.24203580  0.56697442    -0.73800
O33         O  0.64169525  0.27128262  0.54938026    -0.73600
O34         O  0.66692380  0.25473237  0.49446345    -0.79300
O35         O  0.61747526  0.25436789  0.54745940    -0.77500
O36         O  0.64749322  0.23442848  0.55055551    -1.13600
O37         O  0.61375051  0.21905986  0.54826103    -0.72800
C38         C  0.61484523  0.21248475  0.58745379     0.97900
C39         C  0.68858485  0.22614038  0.56013585     0.94300
Al40       Al  0.66089577  0.25412903  0.55694082     1.55600
O41         O  0.64589884  0.19813191  0.53313146    -0.77500
C42         C  0.62482515  0.26954682  0.55399251     0.98400
C43         C  0.65771964  0.24271886  0.64742331     0.93300
O44         O  0.66067457  0.22658065  0.63512073    -0.82800
O45         O  0.87510658  0.29265006  0.07089721    -0.82200
C46         C  0.84694166  0.29450995  0.89536430     0.97100
O47         O  0.84204297  0.28365983  0.92584044    -0.71400
O48         O  0.86929702  0.26610929  0.95752563    -0.74900
Al49       Al  0.85089909  0.27967400  0.98541547     1.49000
C50         C  0.88516466  0.26394602  0.97151931     0.92400
O51         O  0.89819928  0.30615725  0.96172110    -0.81200
O52         O  0.85734014  0.33297335  0.01750170    -0.74700
Al53       Al  0.88560862  0.29920486  0.01514976     1.90100
O54         O  0.87994668  0.32850131  0.94469038    -0.73800
O55         O  0.83111872  0.31612347  0.97351513    -0.73600
O56         O  0.85480192  0.30914503  0.90493678    -0.79300
O57         O  0.83072484  0.29088986  0.01201807    -0.77500
O58         O  0.86424180  0.29960458  0.98761541    -1.13600
O59         O  0.85705888  0.27142987  0.04510883    -0.72800
C60         C  0.86460315  0.27952517  0.07776600     0.97900
C61         C  0.89526848  0.32099715  0.94198407     0.94300
Al62       Al  0.85639265  0.31999090  0.96224014     1.55600
O63         O  0.89174606  0.27455168  0.00065953    -0.77500
C64         C  0.82273438  0.30463865  0.99695662     0.98400
C65         C  0.87186656  0.33490528  0.03915617     0.93300
O66         O  0.88452435  0.32356836  0.03595202    -0.82800
O67         O  0.63491354  0.29353577  0.97693541    -0.82200
C68         C  0.66571445  0.29921501  0.14860172     0.97100
O69         O  0.67058383  0.28768859  0.11931522    -0.71400
O70         O  0.64364551  0.26843017  0.08916053    -0.74900
Al71       Al  0.66135209  0.28250753  0.05970192     1.49000
C72         C  0.62760032  0.26609318  0.07662248     0.92400
O73         O  0.61484817  0.30899160  0.08636244    -0.81200
O74         O  0.65405468  0.33501836  0.02109507    -0.74700
Al75       Al  0.62594478  0.30130443  0.03247481     1.90100
O76         O  0.63258833  0.33234456  0.09716226    -0.73800
O77         O  0.68130191  0.31944230  0.06582754    -0.73600
O78         O  0.65820753  0.31378539  0.13696635    -0.79300
O79         O  0.68087026  0.29351438  0.03060621    -0.77500
O80         O  0.64781585  0.30230931  0.05682042    -1.13600
O81         O  0.65459818  0.27349078  0.00070558    -0.72800
C82         C  0.64539246  0.28051032  0.96920428     0.97900
C83         C  0.61769039  0.32431243  0.10351663     0.94300
Al84       Al  0.65595913  0.32339035  0.07847501     1.55600
O85         O  0.62020518  0.27721823  0.05035765    -0.77500
C86         C  0.68924923  0.30742922  0.04299346     0.98400
C87         C  0.63920956  0.33619345  0.00023320     0.93300
O88         O  0.62646488  0.32525968  0.00795218    -0.82800
O89         O  0.53182363  0.39871358  0.80221944    -0.82200
C90         C  0.53279951  0.42523606  0.62504917     0.97100
O91         O  0.52228012  0.43066679  0.65579970    -0.71400
O92         O  0.50426111  0.40423839  0.69032328    -0.74900
Al93       Al  0.51854949  0.42238983  0.71631959     1.49000
C94         C  0.50129033  0.38900400  0.70726883     0.92400
O95         O  0.54376059  0.37476639  0.69359851    -0.81200
O96         O  0.57200474  0.41531385  0.74745192    -0.74700
Al97       Al  0.53763865  0.38769864  0.74660003     1.90100
O98         O  0.56648636  0.39229628  0.67465691    -0.73800
O99         O  0.55508677  0.44222593  0.70315816    -0.73600
O100        O  0.54758476  0.41774212  0.63471101    -0.79300
O101        O  0.53007604  0.44223172  0.74206814    -0.77500
O102        O  0.53826512  0.40884449  0.71823735    -1.13600
O103        O  0.51068824  0.41679555  0.77657581    -0.72800
C104        C  0.51875174  0.40923422  0.80915874     0.97900
C105        C  0.55845658  0.37711362  0.67285829     0.94300
Al106      Al  0.55865811  0.41635086  0.69212855     1.55600
O107        O  0.51264198  0.38203482  0.73393938    -0.77500
C108        C  0.54348136  0.45054550  0.72675269     0.98400
C109        C  0.57357077  0.40093966  0.77009720     0.93300
O110        O  0.56220992  0.38829261  0.76633822    -0.82800
O111        O  0.52903985  0.63672693  0.72503091    -0.82200
C112        C  0.53133124  0.60726050  0.89826896     0.97100
O113        O  0.52026850  0.60243599  0.86807343    -0.71400
O114        O  0.50250947  0.62968253  0.83835616    -0.74900
Al115      Al  0.51606005  0.61154387  0.80889787     1.49000
C116        C  0.49976175  0.64542338  0.82438196     0.92400
O117        O  0.54130405  0.65829667  0.83611931    -0.81200
O118        O  0.56978980  0.61975815  0.77471847    -0.74700
Al119      Al  0.53500954  0.64667465  0.78144578     1.90100
O120        O  0.56443386  0.64067530  0.85126973    -0.73800
O121        O  0.55319797  0.59172565  0.81512439    -0.73600
O122        O  0.54635491  0.61411997  0.88816269    -0.79300
O123        O  0.52686267  0.59143072  0.78127848    -0.77500
O124        O  0.53597758  0.62491708  0.80678631    -1.13600
O125        O  0.50784216  0.61823983  0.74919206    -0.72800
C126        C  0.51592880  0.62630248  0.71729755     0.97900
C127        C  0.55634430  0.65573560  0.85521763     0.94300
Al128      Al  0.55673141  0.61704809  0.83040575     1.55600
O129        O  0.51005605  0.65215681  0.79499032    -0.77500
C130        C  0.54108291  0.58343383  0.79303661     0.98400
C131        C  0.57136749  0.63507288  0.75624083     0.93300
O132        O  0.55944003  0.64702260  0.76150371    -0.82800
O133        O  0.44176962  0.39423730  0.17508427    -0.82200
C134        C  0.49086511  0.40792489  0.30911444     0.97100
O135        O  0.47739123  0.39785474  0.30211913    -0.71400
O136        O  0.44640142  0.38924397  0.26598133    -0.74900
Al137      Al  0.47077931  0.38762008  0.24578436     1.49000
C138        C  0.43580695  0.40244644  0.27088131     0.92400
O139        O  0.45570211  0.44296394  0.20515322    -0.81200
O140        O  0.48787323  0.43042470  0.15707420    -0.74700
Al141      Al  0.45095656  0.41759161  0.19321047     1.90100
O142        O  0.48084552  0.44195067  0.24371620    -0.73800
O143        O  0.50464532  0.40313502  0.19026683    -0.73600
O144        O  0.49910757  0.41536667  0.27675322    -0.79300
O145        O  0.49533428  0.38086566  0.23244888    -0.77500
O146        O  0.47106059  0.40902086  0.21871232    -1.13600
O147        O  0.46386612  0.37558825  0.19176037    -0.72800
C148        C  0.44922696  0.37888660  0.17147021     0.97900
C149        C  0.46746327  0.45064702  0.22958547     0.94300
Al150      Al  0.49136348  0.42170618  0.21709043     1.55600
O151        O  0.43790860  0.41688520  0.24879367    -0.77500
C152        C  0.50689861  0.38760580  0.20613741     0.98400
C153        C  0.47722703  0.42519980  0.12628685     0.93300
O154        O  0.46196002  0.41866683  0.13568695    -0.82800
O155        O  0.44295192  0.63972562  0.34715705    -0.82200
C156        C  0.49384381  0.62651501  0.21674024     0.97100
O157        O  0.48131097  0.63761297  0.22443523    -0.71400
O158        O  0.44955571  0.64538846  0.25693642    -0.74900
Al159      Al  0.47344440  0.64681616  0.28042889     1.49000
C160        C  0.43801105  0.63295596  0.25218720     0.92400
O161        O  0.45652946  0.59138376  0.31686284    -0.81200
O162        O  0.48918164  0.60390534  0.36840398    -0.74700
Al163      Al  0.45231077  0.61659087  0.32875377     1.90100
O164        O  0.48256386  0.59123052  0.28251013    -0.73800
O165        O  0.50753030  0.63012027  0.33447872    -0.73600
O166        O  0.50106308  0.61761029  0.24834134    -0.79300
O167        O  0.49734651  0.65365495  0.29840623    -0.77500
O168        O  0.47307949  0.62500090  0.30552751    -1.13600
O169        O  0.46545775  0.65818672  0.33402939    -0.72800
C170        C  0.45039916  0.65497997  0.35209879     0.97900
C171        C  0.46861945  0.58310514  0.29531085     0.94300
Al172      Al  0.49325605  0.61183301  0.30812489     1.55600
O173        O  0.43975570  0.61798461  0.27224051    -0.77500
C174        C  0.50894575  0.64640666  0.32358095     0.98400
C175        C  0.47790124  0.60897287  0.39781731     0.93300
O176        O  0.46262418  0.61505089  0.38676284    -0.82800
O177        O  0.37976170  0.71306543  0.92925571    -0.82200
C178        C  0.35344200  0.76084182  0.06117052     0.97100
O179        O  0.36990560  0.75679942  0.05606267    -0.71400
O180        O  0.37196060  0.72171148  0.05744370    -0.74900
Al181      Al  0.38102848  0.73933412  0.01728526     1.49000
C182        C  0.36790384  0.70571310  0.04687596     0.92400
O183        O  0.33220161  0.71656162  0.97869357    -0.81200
O184        O  0.35451328  0.75538911  0.90662518    -0.74700
Al185      Al  0.35650600  0.71613234  0.95536303     1.90100
O186        O  0.32691099  0.74453975  0.95944554    -0.73800
O187        O  0.36818978  0.77410722  0.97352522    -0.73600
O188        O  0.34236021  0.75978063  0.02901217    -0.79300
O189        O  0.39236373  0.75745446  0.98092097    -0.77500
O190        O  0.36225007  0.73731799  0.98024776    -1.13600
O191        O  0.39600776  0.72185250  0.98731109    -0.72800
C192        C  0.39461937  0.71360740  0.95006817     0.97900
C193        C  0.32118023  0.72925171  0.97142632     0.94300
Al194      Al  0.34909371  0.75682849  0.96808773     1.55600
O195        O  0.36305365  0.70180653  0.00701998    -0.77500
C196        C  0.38511351  0.77242633  0.97157617     0.98400
C197        C  0.35145383  0.74190432  0.88163007     0.93300
O198        O  0.34938598  0.72622034  0.89798985    -0.82800
O199        O  0.13259629  0.70967231  0.09992180    -0.82200
C200        C  0.14717800  0.75879779  0.96487480     0.97100
O201        O  0.13654172  0.74581417  0.97215606    -0.71400
O202        O  0.12728825  0.71463589  0.00658502    -0.74900
Al203      Al  0.12652808  0.73895784  0.02870904     1.49000
C204        C  0.13958704  0.70290099  0.00331286     0.92400
O205        O  0.18134141  0.72115668  0.06689071    -0.81200
O206        O  0.17115479  0.75412839  0.11538359    -0.74700
Al207      Al  0.15598366  0.71776026  0.08063026     1.90100
O208        O  0.18120525  0.74628829  0.02819919    -0.73800
O209        O  0.14391653  0.77249792  0.08485787    -0.73600
O210        O  0.15525286  0.76651843  0.99718334    -0.79300
O211        O  0.12062839  0.76355890  0.04532897    -0.77500
O212        O  0.14808774  0.73827157  0.05520348    -1.13600
O213        O  0.11428711  0.73183879  0.08214008    -0.72800
C214        C  0.11728300  0.71715812  0.10237155     0.97900
C215        C  0.18925081  0.73223414  0.04114866     0.94300
Al216      Al  0.16175366  0.75809465  0.05628430     1.55600
O217        O  0.15402444  0.70423273  0.02584368    -0.77500
C218        C  0.12777085  0.77463500  0.07266586     0.98400
C219        C  0.16588755  0.74382122  0.14661564     0.93300
O220        O  0.15831124  0.72894264  0.13790561    -0.82800
O221        O  0.37488077  0.78057327  0.54988440    -0.82200
C222        C  0.34716289  0.79334211  0.38245449     0.97100
O223        O  0.35028783  0.78052954  0.40921449    -0.71400
O224        O  0.36721295  0.76242800  0.47094687    -0.74900
Al225      Al  0.34872647  0.78065426  0.47136314     1.49000
C226        C  0.38391468  0.76336421  0.46274736     0.92400
O227        O  0.39786054  0.81322393  0.46842172    -0.81200
O228        O  0.36661764  0.83543509  0.49792519    -0.74700
Al229      Al  0.38401938  0.79719403  0.50535573     1.90100
O230        O  0.37925337  0.82285343  0.41637307    -0.73800
O231        O  0.33421967  0.82191458  0.48035594    -0.73600
O232        O  0.34688071  0.80961379  0.39618588    -0.79300
O233        O  0.32671585  0.79370900  0.46965290    -0.77500
O234        O  0.36337381  0.79963269  0.47535752    -1.13600
O235        O  0.34587860  0.77932068  0.53430666    -0.72800
C236        C  0.35883856  0.77687529  0.56108067     0.97900
C237        C  0.39510391  0.82146551  0.43177562     0.94300
Al238      Al  0.35722704  0.82066942  0.44989314     1.55600
O239        O  0.39218145  0.77815759  0.46757353    -0.77500
C240        C  0.32233362  0.80971175  0.47885076     0.98400
C241        C  0.37300056  0.83158825  0.53636679     0.93300
O242        O  0.37799421  0.81576916  0.54588844    -0.82800
O243        O  0.13716229  0.79731923  0.47097264    -0.82200
C244        C  0.16511982  0.79925441  0.64724548     0.97100
O245        O  0.17048609  0.78864773  0.61647902    -0.71400
O246        O  0.14465858  0.76969723  0.58044546    -0.74900
Al247      Al  0.16251854  0.78505913  0.55548261     1.49000
C248        C  0.12868134  0.76738814  0.56720564     0.92400
O249        O  0.11442270  0.81017728  0.58113394    -0.81200
O250        O  0.15407068  0.83865318  0.52537689    -0.74700
Al251      Al  0.12694034  0.80365193  0.52746333     1.90100
O252        O  0.13189783  0.83310294  0.59857854    -0.73800
O253        O  0.18152538  0.82244251  0.56863241    -0.73600
O254        O  0.15780209  0.81416092  0.63765993    -0.79300
O255        O  0.18249803  0.79725511  0.53031003    -0.77500
O256        O  0.14845826  0.80460244  0.55445682    -1.13600
O257        O  0.15709704  0.77759550  0.49503353    -0.72800
C258        C  0.14846720  0.78497953  0.46318082     0.97900
C259        C  0.11672991  0.82518338  0.60064133     0.94300
Al260      Al  0.15579862  0.82527668  0.58047087     1.55600
O261        O  0.12132801  0.77893861  0.54190165    -0.77500
C262        C  0.19007291  0.81150000  0.54375219     0.98400
C263        C  0.13953820  0.83985800  0.50312984     0.93300
O264        O  0.12730962  0.82805206  0.50661630    -0.82800
O265        O  0.06681677  0.39544423  0.84463510    -0.82200
C266        C  0.01552901  0.41073922  0.71625916     0.97100
O267        O  0.02846639  0.40001747  0.72238964    -0.71400
O268        O  0.06000198  0.39139022  0.75300975    -0.74900
Al269      Al  0.03620249  0.38970503  0.77703049     1.49000
C270        C  0.07111859  0.40423492  0.74893834     0.92400
O271        O  0.05332741  0.44443231  0.81791639    -0.81200
O272        O  0.02161712  0.43290880  0.86778239    -0.74700
Al273      Al  0.05754603  0.41904882  0.82861100     1.90100
O274        O  0.02765164  0.44464605  0.78123543    -0.73800
O275        O  0.00322296  0.40589225  0.83600743    -0.73600
O276        O  0.00789109  0.41843049  0.74916703    -0.79300
O277        O  0.01207938  0.38309343  0.79470580    -0.77500
O278        O  0.03682104  0.41104648  0.80462231    -1.13600
O279        O  0.04433475  0.37718642  0.82896725    -0.72800
C280        C  0.05957728  0.37995111  0.84675847     0.97900
C281        C  0.04164208  0.45266949  0.79468216     0.94300
Al282      Al  0.01683729  0.42434018  0.80823629     1.55600
O283        O  0.06976637  0.41845413  0.77223317    -0.77500
C284        C  0.00108738  0.38991668  0.82244031     0.98400
C285        C  0.03258877  0.42762311  0.89768773     0.93300
O286        O  0.04732959  0.42020596  0.88707844    -0.82800
O287        O  0.06924852  0.64373731  0.68599707    -0.82200
C288        C  0.01809071  0.62602882  0.81233960     0.97100
O289        O  0.03131055  0.63661615  0.80803883    -0.71400
O290        O  0.06265604  0.64679984  0.77814032    -0.74900
Al291      Al  0.03877903  0.64821698  0.75439410     1.49000
C292        C  0.07377970  0.63400993  0.78219425     0.92400
O293        O  0.05639964  0.59383220  0.71076202    -0.81200
O294        O  0.02476091  0.60642139  0.65857773    -0.74700
Al295      Al  0.06051964  0.61966187  0.70099010     1.90100
O296        O  0.03025650  0.59381755  0.74463828    -0.73800
O297        O  0.00631362  0.63290357  0.69230700    -0.73600
O298        O  0.01044575  0.61917364  0.77816427    -0.79300
O299        O  0.01432138  0.65466459  0.73808466    -0.77500
O300        O  0.03964041  0.62735192  0.72449479    -1.13600
O301        O  0.04671767  0.66175279  0.70343245    -0.72800
C302        C  0.06174194  0.65916374  0.68425317     0.97900
C303        C  0.04431552  0.58561671  0.73298746     0.94300
Al304      Al  0.01970760  0.61416581  0.71878730     1.55600
O305        O  0.07255815  0.61999288  0.75806915    -0.77500
C306        C  0.00342733  0.64817294  0.70942720     0.98400
C307        C  0.03618380  0.61149063  0.62954133     0.93300
O308        O  0.05086256  0.61870366  0.64160414    -0.82800
O309        O  0.97939611  0.40086300  0.22031015    -0.82200
C310        C  0.97804189  0.42754542  0.39723961     0.97100
O311        O  0.98915753  0.43230473  0.36723023    -0.71400
O312        O  0.00531744  0.40420785  0.33516474    -0.74900
Al313      Al  0.99308862  0.42354000  0.30745031     1.49000
C314        C  0.00695562  0.38840216  0.32010883     0.92400
O315        O  0.96412636  0.37763672  0.32723521    -0.81200
O316        O  0.93958413  0.42010276  0.27317664    -0.74700
Al317      Al  0.97200670  0.39021754  0.27499775     1.90100
O318        O  0.94255834  0.39669900  0.34524446    -0.73800
O319        O  0.95763017  0.44542538  0.31723796    -0.73600
O320        O  0.96294671  0.42086862  0.38670172    -0.79300
O321        O  0.98329816  0.44439412  0.28077569    -0.77500
O322        O  0.97247611  0.41135343  0.30369746    -1.13600
O323        O  0.00151248  0.41727578  0.24802892    -0.72800
C324        C  0.99312718  0.41064336  0.21464661     0.97900
C325        C  0.94942410  0.38100611  0.34703841     0.94300
Al326      Al  0.95235894  0.42012712  0.32868222     1.55600
O327        O  0.99628455  0.38259685  0.29007751    -0.77500
C328        C  0.96960185  0.45306654  0.29346912     0.98400
C329        C  0.93752221  0.40613219  0.24938197     0.93300
O330        O  0.94798070  0.39275942  0.25295356    -0.82800
O331        O  0.98306549  0.63695845  0.30822049    -0.82200
C332        C  0.97718427  0.61249218  0.12989565     0.97100
O333        O  0.98814140  0.60660927  0.15905264    -0.71400
O334        O  0.00673680  0.63338106  0.19154821    -0.74900
Al335      Al  0.99357778  0.61453608  0.21872487     1.49000
C336        C  0.00918906  0.64895111  0.20756274     0.92400
O337        O  0.96612015  0.66201567  0.20606298    -0.81200
O338        O  0.94058753  0.62009820  0.25770663    -0.74700
Al339      Al  0.97466024  0.64841042  0.25549543     1.90100
O340        O  0.94381453  0.64408828  0.18674947    -0.73800
O341        O  0.95697142  0.59451478  0.20960174    -0.73600
O342        O  0.96259113  0.61987280  0.14174455    -0.79300
O343        O  0.98296008  0.59411627  0.24499558    -0.77500
O344        O  0.97364713  0.62772342  0.22507937    -1.13600
O345        O  0.00359411  0.61961773  0.27728754    -0.72800
C346        C  0.99642317  0.62656523  0.31177175     0.97900
C347        C  0.95142000  0.65942801  0.18556024     0.94300
Al348      Al  0.95271698  0.62021297  0.20093405     1.55600
O349        O  0.99854310  0.65525521  0.23686136    -0.77500
C350        C  0.96897855  0.58607085  0.23153064     0.98400
C351        C  0.94019739  0.63333573  0.28463443     0.93300
O352        O  0.95125927  0.64624714  0.28118807    -0.82800
O353        O  0.56700811  0.14142592  0.17986801    -0.82200
C354        C  0.51683757  0.12809648  0.31158010     0.97100
O355        O  0.52976653  0.13865784  0.30395990    -0.71400
O356        O  0.56104455  0.14632704  0.27129515    -0.74900
Al357      Al  0.53708150  0.14804311  0.24806950     1.49000
C358        C  0.57172480  0.13318160  0.27639072     0.92400
O359        O  0.55335093  0.09266896  0.20859407    -0.81200
O360        O  0.52144550  0.10385337  0.16094115    -0.74700
Al361      Al  0.55765789  0.11805109  0.19718813     1.90100
O362        O  0.52867684  0.09320664  0.24873363    -0.73800
O363        O  0.50347795  0.13099262  0.19273867    -0.73600
O364        O  0.50918871  0.11959636  0.27981927    -0.79300
O365        O  0.51292721  0.15452743  0.23088446    -0.77500
O366        O  0.53729474  0.12637644  0.22198638    -1.13600
O367        O  0.54468358  0.15983421  0.19486387    -0.72800
C368        C  0.55971498  0.15682985  0.17659681     0.97900
C369        C  0.54239559  0.08491039  0.23485572     0.94300
Al370      Al  0.51738565  0.11299762  0.22067044     1.55600
O371        O  0.57023809  0.11892979  0.25317576    -0.77500
C372        C  0.50163656  0.14719106  0.20464342     0.98400
C373        C  0.53208124  0.10896987  0.13004649     0.93300
O374        O  0.54687150  0.11662158  0.13942868    -0.82800
O375        O  0.55804912  0.89615854  0.36501146    -0.82200
C376        C  0.51622875  0.91884394  0.21547843     0.97100
O377        O  0.52038284  0.90260550  0.22408991    -0.71400
O378        O  0.55555372  0.90027182  0.23413077    -0.74900
Al379      Al  0.53587814  0.89254840  0.26997396     1.49000
C380        C  0.57101199  0.90408817  0.24931081     0.92400
O381        O  0.55746056  0.94209115  0.30581272    -0.81200
O382        O  0.51510757  0.92178569  0.36894620    -0.74700
Al383      Al  0.55639593  0.91862657  0.33391705     1.90100
O384        O  0.52892094  0.94825747  0.31631801    -0.73800
O385        O  0.49923721  0.90655746  0.30004107    -0.73600
O386        O  0.51719752  0.93097156  0.24519711    -0.79300
O387        O  0.51626551  0.88253617  0.30312183    -0.77500
O388        O  0.53650426  0.91228478  0.30373011    -1.13600
O389        O  0.55113915  0.87841191  0.30805602    -0.72800
C390        C  0.55773350  0.88067025  0.34701983     0.97900
C391        C  0.54478046  0.95344374  0.30798480     0.94300
Al392      Al  0.51678801  0.92584938  0.30734894     1.55600
O393        O  0.57308243  0.91021167  0.28888604    -0.77500
C394        C  0.50103417  0.88985640  0.30777095     0.98400
C395        C  0.52720796  0.92467891  0.39799333     0.93300
O396        O  0.54345747  0.92753448  0.38632691    -0.82800
O397        O  0.47893741  0.13546348  0.80776101    -0.82200
C398        C  0.47652502  0.11214927  0.62867808     0.97100
O399        O  0.48682886  0.10559381  0.65837033    -0.71400
O400        O  0.50510377  0.13164458  0.69395283    -0.74900
Al401      Al  0.49102144  0.11289295  0.71906856     1.49000
C402        C  0.50748452  0.14717298  0.71008250     0.92400
O403        O  0.46527465  0.16142027  0.70295237    -0.81200
O404        O  0.43764769  0.11975686  0.75154850    -0.74700
Al405      Al  0.47227166  0.14731061  0.75392035     1.90100
O406        O  0.44270238  0.14397963  0.68260040    -0.73800
O407        O  0.45409177  0.09390593  0.70448345    -0.73600
O408        O  0.46179418  0.11954313  0.63916763    -0.79300
O409        O  0.47938188  0.09228050  0.74273390    -0.77500
O410        O  0.47135267  0.12660530  0.72328133    -1.13600
O411        O  0.49955564  0.11747587  0.77934498    -0.72800
C412        C  0.49189378  0.12465612  0.81297024     0.97900
C413        C  0.45033939  0.15932358  0.68297565     0.94300
Al414      Al  0.45078560  0.11976986  0.69653820     1.55600
O415        O  0.49692289  0.15341326  0.73960263    -0.77500
C416        C  0.46538996  0.08483753  0.72712655     0.98400
C417        C  0.43640272  0.13354127  0.77648577     0.93300
O418        O  0.44805702  0.14599856  0.77536916    -0.82800
O419        O  0.48047237  0.89813532  0.72870698    -0.82200
C420        C  0.47683755  0.92972559  0.90004528     0.97100
O421        O  0.48883006  0.93346290  0.87108380    -0.71400
O422        O  0.50783000  0.90664011  0.83851617    -0.74900
Al423      Al  0.49312284  0.92447101  0.81106758     1.49000
C424        C  0.51005526  0.89070800  0.82490822     0.92400
O425        O  0.46776446  0.87756647  0.83968259    -0.81200
O426        O  0.44009526  0.91598751  0.77580915    -0.74700
Al427      Al  0.47417321  0.88878483  0.78501341     1.90100
O428        O  0.44449008  0.89507306  0.85343408    -0.73800
O429        O  0.45550687  0.94405259  0.81610885    -0.73600
O430        O  0.46224206  0.92226361  0.88874473    -0.79300
O431        O  0.48189170  0.94434980  0.78368407    -0.77500
O432        O  0.47332641  0.91077057  0.80946228    -1.13600
O433        O  0.50083567  0.91794525  0.75126051    -0.72800
C434        C  0.49303828  0.90909125  0.72013098     0.97900
C435        C  0.45271121  0.88010965  0.85842945     0.94300
Al436      Al  0.45238314  0.91875429  0.83173557     1.55600
O437        O  0.49862001  0.88337227  0.79937993    -0.77500
C438        C  0.46740540  0.95222846  0.79341887     0.98400
C439        C  0.43848160  0.90076225  0.75727905     0.93300
O440        O  0.44986277  0.88842020  0.76408394    -0.82800
O441        O  0.87776151  0.82450685  0.11348688    -0.82200
C442        C  0.85876216  0.77893728  0.96590216     0.97100
O443        O  0.87449154  0.78398345  0.97675760    -0.71400
O444        O  0.87383840  0.81924351  0.98326836    -0.74900
Al445      Al  0.88268571  0.80091095  0.02129407     1.49000
C446        C  0.86785895  0.83446020  0.99543273     0.92400
O447        O  0.83124524  0.82015193  0.05663931    -0.81200
O448        O  0.85309156  0.77929033  0.11882088    -0.74700
Al449      Al  0.85516766  0.82069458  0.08290945     1.90100
O450        O  0.82692829  0.79115990  0.06294241    -0.73800
O451        O  0.86995036  0.76438628  0.05221482    -0.73600
O452        O  0.84589600  0.78011357  0.99359477    -0.79300
O453        O  0.89350111  0.78217697  0.05703990    -0.77500
O454        O  0.86257834  0.80087568  0.05378083    -1.13600
O455        O  0.89549461  0.81808144  0.05683957    -0.72800
C456        C  0.89295554  0.82551375  0.09455543     0.97900
C457        C  0.82070833  0.80673428  0.05656148     0.94300
Al458      Al  0.84992917  0.78051704  0.05674259     1.55600
O459        O  0.86179337  0.83705826  0.03494871    -0.77500
C460        C  0.88651390  0.76662528  0.06060841     0.98400
C461        C  0.85057126  0.79143276  0.14797434     0.93300
O462        O  0.84782112  0.80772949  0.13650100    -0.82800
O463        O  0.63383107  0.82484019  0.91733559    -0.82200
C464        C  0.65103834  0.77366771  0.05371053     0.97100
O465        O  0.63555339  0.77916499  0.04251165    -0.71400
O466        O  0.63433981  0.81434796  0.04597713    -0.74900
Al467      Al  0.62748356  0.79720902  0.00153539     1.49000
C468        C  0.63934366  0.83034865  0.03859582     0.92400
O469        O  0.67804491  0.82029898  0.98221439    -0.81200
O470        O  0.66141022  0.78226069  0.90017395    -0.74700
Al471      Al  0.65537636  0.82102028  0.95091904     1.90100
O472        O  0.68441836  0.79199369  0.96806709    -0.73800
O473        O  0.64248939  0.76311341  0.95764448    -0.73600
O474        O  0.66417909  0.77546700  0.02704819    -0.79300
O475        O  0.61809760  0.77968364  0.96064395    -0.77500
O476        O  0.64826647  0.79943877  0.97187980    -1.13600
O477        O  0.61465789  0.81467226  0.96748742    -0.72800
C478        C  0.61793286  0.82334858  0.93187830     0.97900
C479        C  0.68907960  0.80734091  0.98240412     0.94300
Al480      Al  0.66199245  0.77990774  0.96373334     1.55600
O481        O  0.64621924  0.83472100  0.00109848    -0.77500
C482        C  0.62567363  0.76483432  0.95202831     0.98400
C483        C  0.66449778  0.79625978  0.87719928     0.93300
O484        O  0.66536491  0.81169575  0.89560949    -0.82800
O485        O  0.87390921  0.74169158  0.47741638    -0.82200
C486        C  0.84505706  0.73704827  0.64911868     0.97100
O487        O  0.83888310  0.74805167  0.62024657    -0.71400
O488        O  0.86514566  0.76778925  0.58862370    -0.74900
Al489      Al  0.84759171  0.75298858  0.56013950     1.49000
C490        C  0.88115505  0.77031029  0.57615530     0.92400
O491        O  0.89489557  0.72763950  0.58743436    -0.81200
O492        O  0.85607760  0.70003580  0.52298754    -0.74700
Al493      Al  0.88336951  0.73476108  0.53320495     1.90100
O494        O  0.87765900  0.70394878  0.59857620    -0.73800
O495        O  0.82853741  0.71554968  0.56692409    -0.73600
O496        O  0.85210745  0.72231084  0.63742191    -0.79300
O497        O  0.82810138  0.74137645  0.53158039    -0.77500
O498        O  0.86159071  0.73342680  0.55758856    -1.13600
O499        O  0.85385471  0.76151137  0.50083192    -0.72800
C500        C  0.86282240  0.75416421  0.46940155     0.97900
C501        C  0.89254728  0.71214208  0.60407035     0.94300
Al502      Al  0.85401355  0.71228229  0.57983681     1.55600
O503        O  0.88867994  0.75918172  0.55004512    -0.77500
C504        C  0.82046275  0.72684082  0.54213359     0.98400
C505        C  0.87134862  0.69872749  0.50429723     0.93300
O506        O  0.88333875  0.71066852  0.51032163    -0.82800
O507        O  0.63862086  0.75944535  0.54661268    -0.82200
C508        C  0.66093469  0.74023078  0.37693417     0.97100
O509        O  0.65808137  0.75438176  0.39970803    -0.71400
O510        O  0.64281181  0.77482583  0.46194045    -0.74900
Al511      Al  0.66189479  0.75707889  0.46232413     1.49000
C512        C  0.62587768  0.77323638  0.45828027     0.92400
O513        O  0.61392387  0.72351857  0.47711350    -0.81200
O514        O  0.64589791  0.70306922  0.50549049    -0.74700
Al515      Al  0.62839616  0.74108879  0.50794555     1.90100
O516        O  0.63139339  0.71263447  0.42398709    -0.73800
O517        O  0.67755088  0.71675047  0.48020531    -0.73600
O518        O  0.66286538  0.72498847  0.39578379    -0.79300
O519        O  0.68419574  0.74425842  0.45911366    -0.77500
O520        O  0.64806228  0.73802323  0.47449009    -1.13600
O521        O  0.66690949  0.76124925  0.52465094    -0.72800
C522        C  0.65483808  0.76401682  0.55394811     0.97900
C523        C  0.61598031  0.71427814  0.44159868     0.94300
Al524      Al  0.65401140  0.71620994  0.45329471     1.55600
O525        O  0.61835350  0.75844212  0.46770215    -0.77500
C526        C  0.68913810  0.72883312  0.47225064     0.98400
C527        C  0.64006120  0.70778350  0.54388762     0.93300
O528        O  0.63600185  0.72403433  0.55180360    -0.82800
O529        O  0.37523454  0.33360436  0.59468649    -0.82200
C530        C  0.36605621  0.28261951  0.46052369     0.97100
O531        O  0.37635928  0.29563766  0.47014813    -0.71400
O532        O  0.38227784  0.32751531  0.50490707    -0.74900
Al533      Al  0.38385560  0.30344566  0.52800746     1.49000
C534        C  0.36924213  0.33819446  0.49799847     0.92400
O535        O  0.32739742  0.31902795  0.56022664    -0.81200
O536        O  0.33879371  0.28679146  0.60880307    -0.74700
Al537      Al  0.35249962  0.32365222  0.57418681     1.90100
O538        O  0.32847604  0.29437884  0.51992283    -0.73800
O539        O  0.36618857  0.26889245  0.57812673    -0.73600
O540        O  0.35603914  0.27556916  0.49023994    -0.79300
O541        O  0.39045757  0.27945173  0.54596352    -0.77500
O542        O  0.36155855  0.30331780  0.55016167    -1.13600
O543        O  0.39394024  0.31121786  0.58350140    -0.72800
C544        C  0.39039037  0.32624728  0.60133478     0.97900
C545        C  0.31986920  0.30799205  0.53359294     0.94300
Al546      Al  0.34842226  0.28317250  0.54925258     1.55600
O547        O  0.35433433  0.33634267  0.51827919    -0.77500
C548        C  0.38275533  0.26758547  0.56958779     0.98400
C549        C  0.34381181  0.29737326  0.64018843     0.93300
O550        O  0.35047245  0.31269404  0.63152116    -0.82800
O551        O  0.12821526  0.32183069  0.42149514    -0.82200
C552        C  0.15614164  0.28067310  0.56683870     0.97100
O553        O  0.13981870  0.28521903  0.56136279    -0.71400
O554        O  0.13795044  0.32005903  0.55186882    -0.74900
Al555      Al  0.12845158  0.30076921  0.51788121     1.49000
C556        C  0.14087532  0.33559834  0.53623549     0.92400
O557        O  0.17616574  0.32217416  0.47110556    -0.81200
O558        O  0.15420300  0.27974646  0.41158491    -0.74700
Al559      Al  0.15182603  0.32088567  0.44803345     1.90100
O560        O  0.18224981  0.29349317  0.46055950    -0.73800
O561        O  0.14102018  0.26424638  0.48308297    -0.73600
O562        O  0.16710786  0.28083250  0.53435182    -0.79300
O563        O  0.11698408  0.28135581  0.48686916    -0.77500
O564        O  0.14682118  0.30106598  0.47972621    -1.13600
O565        O  0.11315262  0.31658149  0.48379366    -0.72800
C566        C  0.11370878  0.32243647  0.44377711     0.97900
C567        C  0.18752059  0.30949072  0.46750776     0.94300
Al568      Al  0.16009732  0.28125006  0.47287787     1.55600
O569        O  0.14487024  0.33778146  0.49500411    -0.77500
C570        C  0.12414988  0.26618309  0.47971530     0.98400
C571        C  0.15653160  0.29182672  0.38226753     0.93300
O572        O  0.15921878  0.30812097  0.39388970    -0.82800
O573        O  0.37080783  0.24208358  0.96253140    -0.82200
C574        C  0.34962426  0.23987815  0.14336679     0.97100
O575        O  0.34317993  0.25082301  0.11473142    -0.71400
O576        O  0.36777917  0.26874338  0.07373508    -0.74900
Al577      Al  0.34869963  0.25456718  0.05218709     1.49000
C578        C  0.38317796  0.27085141  0.05718470     0.92400
O579        O  0.39618030  0.22761639  0.06659487    -0.81200
O580        O  0.35376206  0.20107294  0.01760024    -0.74700
Al581      Al  0.38240816  0.23491974  0.01600704     1.90100
O582        O  0.37860547  0.20507214  0.08586625    -0.73800
O583        O  0.32913776  0.21778922  0.06735389    -0.73600
O584        O  0.35544886  0.22459138  0.13146804    -0.79300
O585        O  0.32736732  0.24357067  0.03174787    -0.77500
O586        O  0.36184274  0.23452978  0.04701792    -1.13600
O587        O  0.35218766  0.26229487  0.99054888    -0.72800
C588        C  0.35988899  0.25493189  0.95707247     0.97900
C589        C  0.39390029  0.21269670  0.08622951     0.94300
Al590      Al  0.35470459  0.21392069  0.07342445     1.55600
O591        O  0.38949825  0.25928893  0.03024965    -0.77500
C592        C  0.32004620  0.22945523  0.04633358     0.98400
C593        C  0.36744144  0.19947180  0.99256322     0.93300
O594        O  0.38023637  0.21075616  0.99409051    -0.82800
O595        O  0.13350658  0.24258793  0.04988287    -0.82200
C596        C  0.16739060  0.23913496  0.88158704     0.97100
O597        O  0.17195867  0.24943267  0.91374802    -0.71400
O598        O  0.14428180  0.26860887  0.93861481    -0.74900
Al599      Al  0.16097288  0.25413277  0.97075740     1.49000
C600        C  0.12796817  0.27098833  0.94872004     0.92400
O601        O  0.11398603  0.22867885  0.93741011    -0.81200
O602        O  0.15193703  0.20108738  0.00245521    -0.74700
Al603      Al  0.12487026  0.23571892  0.99251729     1.90100
O604        O  0.13190009  0.20566594  0.92458526    -0.73800
O605        O  0.18017554  0.21723348  0.96347942    -0.73600
O606        O  0.15893095  0.22457385  0.88889140    -0.79300
O607        O  0.17917698  0.24221509  0.00291087    -0.77500
O608        O  0.14697399  0.23459676  0.96980718    -1.13600
O609        O  0.15302337  0.26305228  0.02822388    -0.72800
C610        C  0.14417369  0.25534280  0.05908171     0.97900
C611        C  0.11683551  0.21351408  0.91941990     0.94300
Al612      Al  0.15513083  0.21383085  0.94660906     1.55600
O613        O  0.12002322  0.26012830  0.97487051    -0.77500
C614        C  0.18756230  0.22834584  0.99028630     0.98400
C615        C  0.13692244  0.20009684  0.02255600     0.93300
O616        O  0.12464185  0.21156101  0.01529759    -0.82800
O617        O  0.95048538  0.14128060  0.87111751    -0.82200
C618        C  0.99276699  0.11713167  0.72473076     0.97100
O619        O  0.98876406  0.13340531  0.73280135    -0.71400
O620        O  0.95379977  0.13447002  0.74046878    -0.74900
Al621      Al  0.97267774  0.14347253  0.77648746     1.49000
C622        C  0.93825519  0.13025657  0.75415906     0.92400
O623        O  0.95127918  0.09432418  0.81622479    -0.81200
O624        O  0.99334073  0.11540170  0.87812996    -0.74700
Al625      Al  0.95216290  0.11823114  0.84190303     1.90100
O626        O  0.97986692  0.08835073  0.82660056    -0.73800
O627        O  0.00874755  0.13006643  0.80918028    -0.73600
O628        O  0.99161970  0.10513923  0.75466206    -0.79300
O629        O  0.99200893  0.15443092  0.80961428    -0.77500
O630        O  0.97209859  0.12420027  0.81187286    -1.13600
O631        O  0.95648092  0.15768287  0.81141172    -0.72800
C632        C  0.94997449  0.15618095  0.85052597     0.97900
C633        C  0.96399281  0.08303334  0.81899557     0.94300
Al634      Al  0.99176960  0.11077332  0.81676020     1.55600
O635        O  0.93562224  0.12554291  0.79474221    -0.77500
C636        C  0.00715745  0.14691428  0.81506249     0.98400
C637        C  0.98116546  0.11277676  0.90693498     0.93300
O638        O  0.96487994  0.11019311  0.89524728    -0.82800
O639        O  0.94115026  0.89493014  0.68588617    -0.82200
C640        C  0.99076726  0.90973381  0.81922785     0.97100
O641        O  0.97774080  0.89915526  0.81198451    -0.71400
O642        O  0.94657082  0.89022730  0.77753894    -0.74900
Al643      Al  0.97085026  0.88903333  0.75584593     1.49000
C644        C  0.93520006  0.90286940  0.78106765     0.92400
O645        O  0.95383767  0.94404340  0.71695633    -0.81200
O646        O  0.98608430  0.93301609  0.66794548    -0.74700
Al647      Al  0.94989968  0.91856778  0.70411456     1.90100
O648        O  0.97895186  0.94367501  0.75572914    -0.73800
O649        O  0.00420641  0.90583421  0.69937322    -0.73600
O650        O  0.99863709  0.91755753  0.78684048    -0.79300
O651        O  0.99545831  0.88278905  0.73982291    -0.77500
O652        O  0.97037211  0.91050872  0.72912876    -1.13600
O653        O  0.96358207  0.87679711  0.70261815    -0.72800
C654        C  0.94857772  0.87952164  0.68359397     0.97900
C655        C  0.96488517  0.95177170  0.74335432     0.94300
Al656      Al  0.99025886  0.92393465  0.72756392     1.55600
O657        O  0.93696875  0.91739629  0.75936774    -0.77500
C658        C  0.00656093  0.88987325  0.71265496     0.98400
C659        C  0.97538522  0.92782673  0.63716743     0.93300
O660        O  0.96063493  0.92025221  0.64667957    -0.82800
O661        O  0.01865074  0.13979312  0.24077283    -0.82200
C662        C  0.03059276  0.11139842  0.40788145     0.97100
O663        O  0.01749560  0.11501707  0.38236176    -0.71400
O664        O  0.00011750  0.13314607  0.32091817    -0.74900
Al665      Al  0.01740130  0.11380284  0.31961800     1.49000
C666        C  0.00186396  0.14984408  0.32912814     0.92400
O667        O  0.05162198  0.16167543  0.32037499    -0.81200
O668        O  0.07302789  0.13038528  0.29231291    -0.74700
Al669      Al  0.03528525  0.14839356  0.28439538     1.90100
O670        O  0.06014680  0.14316115  0.37380207    -0.73800
O671        O  0.05836990  0.09817985  0.31009714    -0.73600
O672        O  0.04668600  0.11119275  0.39337330    -0.79300
O673        O  0.02992470  0.09143300  0.32063051    -0.77500
O674        O  0.03691806  0.12781160  0.31497632    -1.13600
O675        O  0.01557167  0.11098082  0.25660911    -0.72800
C676        C  0.01489360  0.12385535  0.22901024     0.97900
C677        C  0.05907193  0.15892588  0.35790539     0.94300
Al678      Al  0.05780554  0.12123468  0.34026091     1.55600
O679        O  0.01675186  0.15760502  0.32217349    -0.77500
C680        C  0.04586944  0.08660506  0.31218976     0.98400
C681        C  0.06932672  0.13661958  0.25358548     0.93300
O682        O  0.05350820  0.14144900  0.24372542    -0.82800
O683        O  0.02763702  0.90418290  0.31291309    -0.82200
C684        C  0.03137447  0.92956243  0.13624805     0.97100
O685        O  0.02127924  0.93622687  0.16631957    -0.71400
O686        O  0.00241291  0.90964526  0.19824488    -0.74900
Al687      Al  0.01647664  0.92789638  0.22615149     1.49000
C688        C  0.99975231  0.89391277  0.21290631     0.92400
O689        O  0.04270523  0.87928056  0.20746902    -0.81200
O690        O  0.06938032  0.92083160  0.26080689    -0.74700
Al691      Al  0.03489959  0.89298622  0.25878161     1.90100
O692        O  0.06528657  0.89708878  0.18993617    -0.73800
O693        O  0.05324242  0.94695567  0.21436675    -0.73600
O694        O  0.04597345  0.92180285  0.14659018    -0.79300
O695        O  0.02831300  0.94773943  0.25374419    -0.77500
O696        O  0.03600599  0.91396958  0.22985790    -1.13600
O697        O  0.00720338  0.92245798  0.28516080    -0.72800
C698        C  0.01469340  0.91493549  0.31848280     0.97900
C699        C  0.05791968  0.88161365  0.18910017     0.94300
Al700      Al  0.05671302  0.92115763  0.20472705     1.55600
O701        O  0.01034183  0.88708666  0.24174276    -0.77500
C702        C  0.04265876  0.95525824  0.24075437     0.98400
C703        C  0.07033436  0.90698162  0.28552746     0.93300
O704        O  0.05884154  0.89439189  0.28255423    -0.82800
C705        C  0.02932124  0.02464506  0.35217449    -0.18300
C706        C  0.02877433  0.00620933  0.34211110    -0.20400
C707        C  0.03886307  0.99922604  0.30604366     0.20200
C708        C  0.05029250  0.01076382  0.28116014    -0.03400
C709        C  0.05087744  0.02944610  0.29140822    -0.06400
C710        C  0.03998763  0.03639069  0.32637468     0.20500
C711        C  0.06174766  0.04125299  0.26558809     0.18700
C712        C  0.07247370  0.03403610  0.23086057    -0.17900
C713        C  0.07188944  0.01548840  0.22069083    -0.20100
C714        C  0.06055970  0.00376767  0.24501523     0.20100
C715        C  0.05875216  0.98537450  0.23289561    -0.33100
C716        C  0.04656848  0.97405038  0.25611748     0.00800
C717        C  0.03713278  0.98104569  0.29346684    -0.24500
C718        C  0.03931704  0.05503754  0.33381384    -0.29000
C719        C  0.04934439  0.06702342  0.30694095     0.06500
C720        C  0.06107214  0.06006175  0.27384837    -0.27700
H721        H  0.02101646  0.02979391  0.37939633     0.11200
H722        H  0.02006305  0.99748318  0.36178974     0.12400
H723        H  0.08099466  0.04280803  0.21080442     0.11400
H724        H  0.07998666  0.01038259  0.19302239     0.10700
H725        H  0.06620569  0.98009847  0.20428219     0.16100
H726        H  0.02797788  0.97241000  0.31216390     0.12000
H727        H  0.03048457  0.06034062  0.35984787     0.14800
H728        H  0.06885003  0.06927232  0.25310197     0.14600
C729        C  0.04379044  0.93081245  0.97250764    -0.18300
C730        C  0.03805886  0.92779303  0.92807582    -0.20400
C731        C  0.02018625  0.92258806  0.91903840     0.20200
C732        C  0.00784004  0.92078615  0.95500133    -0.03400
C733        C  0.01349869  0.92431985  0.99968189    -0.06400
C734        C  0.03166700  0.92899243  0.00854958     0.20500
C735        C  0.00106588  0.92285722  0.03552446     0.18700
C736        C  0.98314698  0.91782271  0.02650398    -0.17900
C737        C  0.97764637  0.91387398  0.98234234    -0.20100
C738        C  0.98990220  0.91527322  0.94640183     0.20100
C739        C  0.98454320  0.91129053  0.90201917    -0.33100
C740        C  0.99675146  0.91321467  0.86600928     0.00800
C741        C  0.01448462  0.91904052  0.87470948    -0.24500
C742        C  0.03746925  0.93129928  0.05334948    -0.29000
C743        C  0.02517191  0.92963177  0.08906202     0.06500
C744        C  0.00690926  0.92594520  0.07987728    -0.27700
H745        H  0.05774710  0.93448980  0.97870065     0.11200
H746        H  0.04767784  0.92926472  0.90082877     0.12400
H747        H  0.97344613  0.91669847  0.05372302     0.11400
H748        H  0.96381855  0.90975463  0.97629759     0.10700
H749        H  0.97078060  0.90705687  0.89536538     0.16100
H750        H  0.02391941  0.92054057  0.84702800     0.12000
H751        H  0.05155085  0.93414877  0.06055021     0.14800
H752        H  0.99744807  0.92448176  0.10754410     0.14600
C753        C  0.96608075  0.92559285  0.42951586    -0.18300
C754        C  0.96054374  0.92753486  0.47445596    -0.20400
C755        C  0.97332674  0.92817110  0.50949450     0.20200
C756        C  0.99188871  0.92712560  0.49911546    -0.03400
C757        C  0.99745007  0.92484757  0.45396290    -0.06400
C758        C  0.98448222  0.92405112  0.41895641     0.20500
C759        C  0.01597532  0.92295357  0.44400924     0.18700
C760        C  0.02879167  0.92389330  0.47885544    -0.17900
C761        C  0.02329399  0.92638282  0.52351159    -0.20100
C762        C  0.00489979  0.92783420  0.53397578     0.20100
C763        C  0.99928914  0.92932912  0.57887365    -0.33100
C764        C  0.98083853  0.92955607  0.58961123     0.00800
C765        C  0.96790328  0.92924192  0.55480539    -0.24500
C766        C  0.99016596  0.92134561  0.37421949    -0.29000
C767        C  0.00855650  0.91885062  0.36460490     0.06500
C768        C  0.02136777  0.91980708  0.39948554    -0.27700
H769        H  0.95595880  0.92499117  0.40310044     0.11200
H770        H  0.94624301  0.92835352  0.48185328     0.12400
H771        H  0.04305303  0.92251197  0.47162023     0.11400
H772        H  0.03341650  0.92684573  0.54997569     0.10700
H773        H  0.00930054  0.92928065  0.60566568     0.16100
H774        H  0.95364841  0.92938097  0.56307822     0.12000
H775        H  0.98030625  0.92056945  0.34717490     0.14800
H776        H  0.03557411  0.91811243  0.39185328     0.14600
C777        C  0.02701845  0.13550236  0.07027018    -0.18300
C778        C  0.02232324  0.13384259  0.02486882    -0.20400
C779        C  0.00702050  0.12385259  0.01229895     0.20200
C780        C  0.99648161  0.11514560  0.04540500    -0.03400
C781        C  0.00138001  0.11656852  0.09108406    -0.06400
C782        C  0.01655195  0.12703614  0.10345291     0.20500
C783        C  0.99094862  0.10778750  0.12441804     0.18700
C784        C  0.97573816  0.09768399  0.11164458    -0.17900
C785        C  0.97069629  0.09650824  0.06620724    -0.20100
C786        C  0.98091873  0.10526150  0.03292382     0.20100
C787        C  0.97580249  0.10446575  0.98741950    -0.33100
C788        C  0.98630342  0.11313926  0.95459390     0.00800
C789        C  0.00194518  0.12263717  0.96715695    -0.24500
C790        C  0.02081873  0.12911742  0.14891330    -0.29000
C791        C  0.01039242  0.12058160  0.18199406     0.06500
C792        C  0.99574970  0.10960925  0.16993795    -0.27700
H793        H  0.03873770  0.14349176  0.07946407     0.11200
H794        H  0.03051395  0.14055696  0.99963756     0.12400
H795        H  0.96760434  0.09089433  0.13685600     0.11400
H796        H  0.95877426  0.08882486  0.05711520     0.10700
H797        H  0.96379182  0.09706113  0.97751780     0.16100
H798        H  0.00998491  0.12948877  0.94179441     0.12000
H799        H  0.03226646  0.13741266  0.15872887     0.14800
H800        H  0.98778499  0.10310665  0.19598296     0.14600
C801        C  0.04549860  0.12163904  0.56651769    -0.18300
C802        C  0.03986508  0.12301695  0.61130799    -0.20400
C803        C  0.02285909  0.11650916  0.62408864     0.20200
C804        C  0.01153008  0.10809766  0.59187995    -0.03400
C805        C  0.01708511  0.10699049  0.54660733    -0.06400
C806        C  0.03409747  0.11395839  0.53388233     0.20500
C807        C  0.00531848  0.09967101  0.51378762     0.18700
C808        C  0.98848304  0.09271108  0.52683982    -0.17900
C809        C  0.98307291  0.09354689  0.57200593    -0.20100
C810        C  0.99436014  0.10149032  0.60456530     0.20100
C811        C  0.98857973  0.10359581  0.64923266    -0.33100
C812        C  0.99963175  0.11255577  0.68045535     0.00800
C813        C  0.01672419  0.11882242  0.66820033    -0.24500
C814        C  0.03903165  0.11400672  0.48839991    -0.29000
C815        C  0.02688524  0.10788136  0.45551399     0.06500
C816        C  0.01027532  0.10026050  0.46827181    -0.27700
H817        H  0.05856405  0.12705263  0.55715255     0.11200
H818        H  0.04867680  0.12943835  0.63579677     0.12400
H819        H  0.97936487  0.08698264  0.50199848     0.11400
H820        H  0.96987590  0.08840718  0.58126756     0.10700
H821        H  0.97524147  0.09906043  0.65926644     0.16100
H822        H  0.02502300  0.12584996  0.69285707     0.12000
H823        H  0.05177822  0.11997699  0.47829334     0.14800
H824        H  0.00099038  0.09539064  0.44262701     0.14600
C825        C  0.93532435  0.01204888  0.73180139    -0.18300
C826        C  0.93506351  0.03051097  0.74280075    -0.20400
C827        C  0.94728974  0.03765519  0.77451093     0.20200
C828        C  0.95956322  0.02591003  0.79620592    -0.03400
C829        C  0.95978661  0.00730273  0.78522157    -0.06400
C830        C  0.94780108  0.00034877  0.75233164     0.20500
C831        C  0.97239885  0.99577976  0.80623237     0.18700
C832        C  0.98430759  0.00274138  0.83881837    -0.17900
C833        C  0.98415298  0.02112830  0.84948798    -0.20100
C834        C  0.97204017  0.03283366  0.82788322     0.20100
C835        C  0.97264510  0.05142558  0.83634872    -0.33100
C836        C  0.96095669  0.06335736  0.81379395     0.00800
C837        C  0.94792866  0.05636120  0.78380422    -0.24500
C838        C  0.94891589  0.98198599  0.73967428    -0.29000
C839        C  0.96198970  0.97061040  0.75934068     0.06500
C840        C  0.97332883  0.97759948  0.79339183    -0.27700
H841        H  0.92595957  0.00698015  0.70661844     0.11200
H842        H  0.92551280  0.03926688  0.72584691     0.12400
H843        H  0.99400925  0.99402808  0.85537223     0.11400
H844        H  0.99375393  0.02625827  0.87406808     0.10700
H845        H  0.98261395  0.05672166  0.85982056     0.16100
H846        H  0.93896449  0.06551576  0.76614323     0.12000
H847        H  0.94006455  0.97673605  0.71355514     0.14800
H848        H  0.98330187  0.96896913  0.80925667     0.14600
C849        C  0.13571698  0.17583495  0.17697302    -0.18300
C850        C  0.12594449  0.16660383  0.21026254    -0.20400
C851        C  0.11081034  0.15612108  0.19853651     0.20200
C852        C  0.10604021  0.15420773  0.15253815    -0.03400
C853        C  0.11596472  0.16341405  0.11896158    -0.06400
C854        C  0.13059273  0.17468106  0.13134281     0.20500
C855        C  0.11044646  0.16232354  0.07334926     0.18700
C856        C  0.09571046  0.15138412  0.06137114    -0.17900
C857        C  0.08585779  0.14234478  0.09458140    -0.20100
C858        C  0.09061796  0.14407609  0.14026184     0.20100
C859        C  0.07951039  0.13689425  0.17395905    -0.33100
C860        C  0.08355943  0.13967672  0.21977578     0.00800
C861        C  0.09964509  0.14856327  0.23199254    -0.24500
C862        C  0.13895719  0.18549754  0.09832098    -0.29000
C863        C  0.13268605  0.18520102  0.05349890     0.06500
C864        C  0.11890633  0.17317276  0.04097711    -0.27700
H865        H  0.14692687  0.18437370  0.18712096     0.11200
H866        H  0.12982317  0.16820489  0.24533358     0.12400
H867        H  0.09137457  0.15037258  0.02645629     0.11400
H868        H  0.07411533  0.13452810  0.08467809     0.10700
H869        H  0.06708285  0.13005535  0.16463068     0.16100
H870        H  0.10262114  0.15093309  0.26738162     0.12000
H871        H  0.14931572  0.19513484  0.10806471     0.14800
H872        H  0.11389870  0.17326005  0.00648700     0.14600
C873        C  0.06885160  0.14773905  0.87612791    -0.18300
C874        C  0.08448519  0.15694541  0.88909407    -0.20400
C875        C  0.08555712  0.17577547  0.88471001     0.20200
C876        C  0.07071654  0.18547593  0.86719718    -0.03400
C877        C  0.05491124  0.17615882  0.85401098    -0.06400
C878        C  0.05404827  0.15721847  0.85854510     0.20500
C879        C  0.03994006  0.18577552  0.83681784     0.18700
C880        C  0.04102850  0.20465753  0.83276047    -0.17900
C881        C  0.05667286  0.21392582  0.84616834    -0.20100
C882        C  0.07155047  0.20447494  0.86367109     0.20100
C883        C  0.08705282  0.21366161  0.87884213    -0.33100
C884        C  0.10178524  0.20402240  0.89677595     0.00800
C885        C  0.10104331  0.18508116  0.89873804    -0.24500
C886        C  0.03838185  0.14801745  0.84566367    -0.29000
C887        C  0.02337021  0.15738024  0.82842608     0.06500
C888        C  0.02418392  0.17631635  0.82425525    -0.27700
H889        H  0.06831991  0.13318967  0.87996021     0.11200
H890        H  0.09571049  0.14933865  0.90284579     0.12400
H891        H  0.02971572  0.21228235  0.81955233     0.11400
H892        H  0.05708380  0.22851719  0.84316578     0.10700
H893        H  0.08751415  0.22830717  0.87767221     0.16100
H894        H  0.11218733  0.17761021  0.91342547     0.12000
H895        H  0.03784512  0.13345696  0.84949799     0.14800
H896        H  0.01266734  0.18362857  0.81097745     0.14600
C897        C  0.26015597  0.25608178  0.06368926    -0.18300
C898        C  0.24150333  0.25556724  0.05758377    -0.20400
C899        C  0.23332922  0.24060226  0.03681206     0.20200
C900        C  0.24391219  0.22578911  0.02291105    -0.03400
C901        C  0.26275749  0.22615622  0.02987333    -0.06400
C902        C  0.27086927  0.24152428  0.04969422     0.20500
C903        C  0.27350500  0.21135473  0.01630739     0.18700
C904        C  0.26520238  0.19635123  0.99574895    -0.17900
C905        C  0.24650588  0.19614888  0.98801253    -0.20100
C906        C  0.23573285  0.21085595  0.00119166     0.20100
C907        C  0.21706321  0.21120279  0.99194861    -0.33100
C908        C  0.20658360  0.22623681  0.00477509     0.00800
C909        C  0.21481038  0.24055958  0.02841388    -0.24500
C910        C  0.28959357  0.24221674  0.05472548    -0.29000
C911        C  0.30038438  0.22760575  0.04147166     0.06500
C912        C  0.29234110  0.21203565  0.02295155    -0.27700
H913        H  0.26622082  0.26791696  0.07912269     0.11200
H914        H  0.23349686  0.26704374  0.06834373     0.12400
H915        H  0.27320830  0.18487546  0.98503744     0.11400
H916        H  0.24049609  0.18454773  0.97139583     0.10700
H917        H  0.21083363  0.20008061  0.97381564     0.16100
H918        H  0.20693788  0.25222332  0.03857818     0.12000
H919        H  0.29586022  0.25415198  0.06927704     0.14800
H920        H  0.30076005  0.20081428  0.01248812     0.14600
C921        C  0.07298710  0.23989126  0.39522857    -0.18300
C922        C  0.06393437  0.22476661  0.37802405    -0.20400
C923        C  0.06971270  0.20726874  0.38915347     0.20200
C924        C  0.08469633  0.20493021  0.41795799    -0.03400
C925        C  0.09396371  0.22017964  0.43483710    -0.06400
C926        C  0.08803819  0.23774944  0.42354882     0.20500
C927        C  0.10933145  0.21782983  0.46238453     0.18700
C928        C  0.11509891  0.20033577  0.47348833    -0.17900
C929        C  0.10577255  0.18522276  0.45721879    -0.20100
C930        C  0.09062487  0.18735831  0.42926996     0.20100
C931        C  0.08159766  0.17224818  0.41149573    -0.33100
C932        C  0.06703244  0.17453115  0.38170266     0.00800
C933        C  0.06101949  0.19206871  0.37117592    -0.24500
C934        C  0.09749390  0.25282934  0.44006878    -0.29000
C935        C  0.11305349  0.25050605  0.46660574     0.06500
C936        C  0.11885219  0.23300275  0.47774327    -0.27700
H937        H  0.06832261  0.25326669  0.38602903     0.11200
H938        H  0.05246349  0.22675218  0.35582683     0.12400
H939        H  0.12688117  0.19834045  0.49460389     0.11400
H940        H  0.11054262  0.17184850  0.46607222     0.10700
H941        H  0.08637902  0.15875972  0.41926459     0.16100
H942        H  0.04972577  0.19389430  0.34827833     0.12000
H943        H  0.09317856  0.26633631  0.43088193     0.14800
H944        H  0.13087214  0.23121165  0.49818385     0.14600
C945        C  0.17825856  0.22796194  0.71848135    -0.18300
C946        C  0.17692464  0.23406598  0.67379904    -0.20400
C947        C  0.17187413  0.25197851  0.66460567     0.20200
C948        C  0.16913759  0.26412544  0.70081722    -0.03400
C949        C  0.17093985  0.25809259  0.74576797    -0.06400
C950        C  0.17484257  0.23974900  0.75471114     0.20500
C951        C  0.16789232  0.27023071  0.78173964     0.18700
C952        C  0.16354464  0.28831113  0.77271780    -0.17900
C953        C  0.16130541  0.29416383  0.72826791    -0.20100
C954        C  0.16370667  0.28208953  0.69222188     0.20100
C955        C  0.16002934  0.28746376  0.64788983    -0.33100
C956        C  0.16217751  0.27529746  0.61199857     0.00800
C957        C  0.16868614  0.25778236  0.62010392    -0.24500
C958        C  0.17437334  0.23341925  0.79952262    -0.29000
C959        C  0.17066453  0.24542799  0.83515738     0.06500
C960        C  0.16824007  0.26389392  0.82611042    -0.27700
H961        H  0.18151379  0.21391763  0.72466458     0.11200
H962        H  0.17920689  0.22459927  0.64642594     0.12400
H963        H  0.16120767  0.29776908  0.80010641     0.11400
H964        H  0.15730132  0.30801607  0.72212252     0.10700
H965        H  0.15511245  0.30100161  0.64124540     0.16100
H966        H  0.17024224  0.24843822  0.59211310     0.12000
H967        H  0.17641775  0.21920516  0.80658690     0.14800
H968        H  0.16528717  0.27317007  0.85355152     0.14600
C969        C  0.13815535  0.24226513  0.22092818    -0.18300
C970        C  0.14012513  0.24729514  0.26611141    -0.20400
C971        C  0.14746844  0.26419065  0.27742296     0.20200
C972        C  0.15320405  0.27604797  0.24309140    -0.03400
C973        C  0.15130814  0.27092297  0.19744590    -0.06400
C974        C  0.14353740  0.25404522  0.18645218     0.20500
C975        C  0.15698910  0.28273021  0.16287988     0.18700
C976        C  0.16469265  0.29947679  0.17437748    -0.17900
C977        C  0.16642749  0.30463568  0.21973639    -0.20100
C978        C  0.16058863  0.29308828  0.25434638     0.20100
C979        C  0.16180209  0.29830050  0.29994095    -0.33100
C980        C  0.15590451  0.28655535  0.33418496     0.00800
C981        C  0.14893638  0.26947796  0.32254828    -0.24500
C982        C  0.14114465  0.24924975  0.14117892    -0.29000
C983        C  0.14656206  0.26097727  0.10651158     0.06500
C984        C  0.15470442  0.27761511  0.11751822    -0.27700
H985        H  0.13228973  0.22921251  0.21293704     0.11200
H986        H  0.13573120  0.23804760  0.29221068     0.12400
H987        H  0.16919616  0.30866947  0.14827219     0.11400
H988        H  0.17222501  0.31771428  0.22773482     0.10700
H989        H  0.16727985  0.31144516  0.30873681     0.16100
H990        H  0.14428201  0.26034908  0.34866287     0.12000
H991        H  0.13517854  0.23625583  0.13293212     0.14800
H992        H  0.15903798  0.28664806  0.09086072     0.14600
C993        C  0.35500013  0.24892062  0.74921197    -0.18300
C994        C  0.35801584  0.24314067  0.79348106    -0.20400
C995        C  0.35582031  0.25514159  0.82980587     0.20200
C996        C  0.35064814  0.27318545  0.82155843    -0.03400
C997        C  0.34789371  0.27910432  0.77678514    -0.06400
C998        C  0.34992858  0.26684497  0.74056021     0.20500
C999        C  0.34336821  0.29731627  0.76823667     0.18700
C1000       C  0.34129831  0.30932502  0.80464471    -0.17900
C1001       C  0.34365331  0.30335659  0.84914073    -0.20100
C1002       C  0.34836358  0.28532928  0.85797266     0.20100
C1003       C  0.35097840  0.27924717  0.90245931    -0.33100
C1004       C  0.35630880  0.26131998  0.91072193     0.00800
C1005       C  0.35877353  0.24940400  0.87420857    -0.24500
C1006       C  0.34730017  0.27281153  0.69620705    -0.29000
C1007       C  0.34332989  0.29102365  0.68731218     0.06500
C1008       C  0.34137018  0.30323293  0.72342193    -0.27700
H1009       H  0.35678262  0.23940952  0.72169435     0.11200
H1010       H  0.36202741  0.22925316  0.79932717     0.12400
H1011       H  0.33784929  0.32335333  0.79870641     0.11400
H1012       H  0.34192941  0.31287783  0.87663251     0.10700
H1013       H  0.34927339  0.28852378  0.93050858     0.16100
H1014       H  0.36283757  0.23554214  0.88042153     0.12000
H1015       H  0.34928668  0.26346369  0.66838421     0.14800
H1016       H  0.33852223  0.31733640  0.71654770     0.14600
C1017       C  0.35479856  0.23300823  0.35197377    -0.18300
C1018       C  0.35221698  0.22700287  0.30752567    -0.20400
C1019       C  0.35389106  0.23905436  0.27119824     0.20200
C1020       C  0.35879571  0.25720885  0.27972055    -0.03400
C1021       C  0.36181138  0.26315724  0.32444499    -0.06400
C1022       C  0.35935272  0.25110311  0.36079976     0.20500
C1023       C  0.36685874  0.28127606  0.33280721     0.18700
C1024       C  0.36915200  0.29318187  0.29643476    -0.17900
C1025       C  0.36585892  0.28737183  0.25220672    -0.20100
C1026       C  0.36043087  0.26951223  0.24362136     0.20100
C1027       C  0.35659522  0.26376730  0.19954752    -0.33100
C1028       C  0.35169547  0.24574606  0.19072425     0.00800
C1029       C  0.35067160  0.23334653  0.22655573    -0.24500
C1030       C  0.36104421  0.25748231  0.40529907    -0.29000
C1031       C  0.36554312  0.27564589  0.41380351     0.06500
C1032       C  0.36898495  0.28731673  0.37742587    -0.27700
H1033       H  0.35303677  0.22354067  0.37948974     0.11200
H1034       H  0.34858279  0.21300716  0.30162674     0.12400
H1035       H  0.37310911  0.30709589  0.30226949     0.11400
H1036       H  0.36740010  0.29690065  0.22472285     0.10700
H1037       H  0.35795742  0.27321772  0.17179816     0.16100
H1038       H  0.34720264  0.21936939  0.21968331     0.12000
H1039       H  0.35870829  0.24837834  0.43333620     0.14800
H1040       H  0.37252032  0.30131460  0.38388470     0.14600
C1041       C  0.24921422  0.29065289  0.42896683    -0.18300
C1042       C  0.26769875  0.29020743  0.43859268    -0.20400
C1043       C  0.27498512  0.30114815  0.47287246     0.20200
C1044       C  0.26359130  0.31305922  0.49682653    -0.03400
C1045       C  0.24487542  0.31357443  0.48694215    -0.06400
C1046       C  0.23767361  0.30208502  0.45336111     0.20500
C1047       C  0.23331235  0.32514006  0.51156041     0.18700
C1048       C  0.24070675  0.33631395  0.54529232    -0.17900
C1049       C  0.25924396  0.33577609  0.55514230    -0.20100
C1050       C  0.27079971  0.32407510  0.53141530     0.20100
C1051       C  0.28931099  0.32285784  0.54234616    -0.33100
C1052       C  0.30068300  0.31058872  0.51946188     0.00800
C1053       C  0.29336873  0.30001206  0.48428365    -0.24500
C1054       C  0.21898727  0.30170270  0.44584411    -0.29000
C1055       C  0.20724966  0.31267514  0.47121483     0.06500
C1056       C  0.21453844  0.32479112  0.50314562    -0.27700
H1057       H  0.24388953  0.28180174  0.40294501     0.11200
H1058       H  0.27625701  0.28104354  0.41972991     0.12400
H1059       H  0.23209932  0.34526775  0.56462337     0.11400
H1060       H  0.26450469  0.34435288  0.58179959     0.10700
H1061       H  0.29473108  0.33106151  0.56954924     0.16100
H1062       H  0.30194211  0.29060168  0.46620219     0.12000
H1063       H  0.21346148  0.29240109  0.42103417     0.14800
H1064       H  0.20555613  0.33315129  0.52308587     0.14600
C1065       C  0.75156324  0.74519110  0.43420976    -0.18300
C1066       C  0.77002039  0.74484559  0.44385048    -0.20400
C1067       C  0.77674923  0.73359757  0.47803665     0.20200
C1068       C  0.76491125  0.72200122  0.50147353    -0.03400
C1069       C  0.74622602  0.72234216  0.49169968    -0.06400
C1070       C  0.73954514  0.73429565  0.45861316     0.20500
C1071       C  0.73418009  0.71125785  0.51615443     0.18700
C1072       C  0.74108715  0.69947092  0.54904896    -0.17900
C1073       C  0.75962800  0.69915252  0.55879048    -0.20100
C1074       C  0.77163315  0.71060440  0.53580463     0.20100
C1075       C  0.79006695  0.71141673  0.54766685    -0.33100
C1076       C  0.80171480  0.72370219  0.52599057     0.00800
C1077       C  0.79499013  0.73431066  0.49031538    -0.24500
C1078       C  0.72091717  0.73568368  0.45162284    -0.29000
C1079       C  0.70872489  0.72532959  0.47718316     0.06500
C1080       C  0.71544787  0.71268182  0.50840652    -0.27700
H1081       H  0.74663118  0.75432575  0.40843768     0.11200
H1082       H  0.77898083  0.75372880  0.42533266     0.12400
H1083       H  0.73209282  0.69078854  0.56801698     0.11400
H1084       H  0.76452007  0.69023413  0.58506709     0.10700
H1085       H  0.79513021  0.70315074  0.57507274     0.16100
H1086       H  0.80388350  0.74362931  0.47290314     0.12000
H1087       H  0.71584968  0.74521484  0.42688235     0.14800
H1088       H  0.70611456  0.70460478  0.52804278     0.14600
C1089       C  0.94796655  0.81637468  0.62872507    -0.18300
C1090       C  0.93848820  0.80100872  0.61447746    -0.20400
C1091       C  0.91965872  0.80152292  0.60934972     0.20200
C1092       C  0.91028111  0.81771123  0.61855809    -0.03400
C1093       C  0.91988617  0.83330258  0.63233414    -0.06400
C1094       C  0.93880556  0.83257920  0.63769515     0.20500
C1095       C  0.91053562  0.84952673  0.64126349     0.18700
C1096       C  0.89168464  0.84999723  0.63648755    -0.17900
C1097       C  0.88215238  0.83451586  0.62319376    -0.20100
C1098       C  0.89130935  0.81829809  0.61427080     0.20100
C1099       C  0.88184259  0.80266470  0.60119399    -0.33100
C1100       C  0.89113450  0.78655566  0.59141958     0.00800
C1101       C  0.91004817  0.78612895  0.59532165    -0.24500
C1102       C  0.94819486  0.84795712  0.65271511    -0.29000
C1103       C  0.93896608  0.86414285  0.66215150     0.06500
C1104       C  0.92014653  0.86487240  0.65569736    -0.27700
H1105       H  0.96248436  0.81557566  0.63277863     0.11200
H1106       H  0.94588624  0.78867587  0.60770588     0.12400
H1107       H  0.88428196  0.86232237  0.64336845     0.11400
H1108       H  0.86760778  0.83521961  0.61997675     0.10700
H1109       H  0.86728137  0.80310590  0.59781948     0.16100
H1110       H  0.91725829  0.77371747  0.58801130     0.12000
H1111       H  0.96267243  0.84722668  0.65785316     0.14800
H1112       H  0.91286625  0.87717971  0.66360435     0.14600
C1113       C  0.69053816  0.74852959  0.22827181    -0.18300
C1114       C  0.68909970  0.75337256  0.18258299    -0.20400
C1115       C  0.67209461  0.75616596  0.16269131     0.20200
C1116       C  0.65639382  0.75354684  0.18889687    -0.03400
C1117       C  0.65782918  0.74871596  0.23485242    -0.06400
C1118       C  0.67499287  0.74642290  0.25492022     0.20500
C1119       C  0.64204172  0.74679160  0.26108994     0.18700
C1120       C  0.62504817  0.74915229  0.24118323    -0.17900
C1121       C  0.62363557  0.75384899  0.19575077    -0.20100
C1122       C  0.63920406  0.75630439  0.16961660     0.20100
C1123       C  0.63779348  0.76204997  0.12491720    -0.33100
C1124       C  0.65328954  0.76543677  0.09890551     0.00800
C1125       C  0.67045409  0.76207322  0.11763322    -0.24500
C1126       C  0.67619380  0.74270536  0.30152133    -0.29000
C1127       C  0.66039992  0.74145499  0.32761806     0.06500
C1128       C  0.64347345  0.74316769  0.30719007    -0.27700
H1129       H  0.70381958  0.74677297  0.24297650     0.11200
H1130       H  0.70130713  0.75524590  0.16301358     0.12400
H1131       H  0.61284279  0.74767691  0.26097741     0.11400
H1132       H  0.61035731  0.75591107  0.18126271     0.10700
H1133       H  0.62448782  0.76441426  0.11080497     0.16100
H1134       H  0.68247167  0.76463200  0.09779518     0.12000
H1135       H  0.68926706  0.74149190  0.31773580     0.14800
H1136       H  0.63138439  0.74224397  0.32772453     0.14600
C1137       C  0.64063254  0.80910600  0.72583811    -0.18300
C1138       C  0.63901089  0.80438032  0.68020604    -0.20400
C1139       C  0.65050026  0.79137594  0.66114370     0.20200
C1140       C  0.66415099  0.78347727  0.68791971    -0.03400
C1141       C  0.66548115  0.78790007  0.73426718    -0.06400
C1142       C  0.65356980  0.80069039  0.75333854     0.20500
C1143       C  0.67819699  0.77895310  0.76188278     0.18700
C1144       C  0.69014900  0.76648186  0.74237657    -0.17900
C1145       C  0.68913691  0.76243971  0.69620672    -0.20100
C1146       C  0.67594411  0.77055720  0.66889891     0.20100
C1147       C  0.67374217  0.76532872  0.62355916    -0.33100
C1148       C  0.65941308  0.77226092  0.59781990     0.00800
C1149       C  0.64807312  0.78553054  0.61641104    -0.24500
C1150       C  0.65429486  0.80425402  0.79990001    -0.29000
C1151       C  0.66619957  0.79461973  0.82783222     0.06500
C1152       C  0.67825460  0.78214534  0.80870315    -0.27700
H1153       H  0.63139892  0.81895644  0.73994550     0.11200
H1154       H  0.62854996  0.81065144  0.66003231     0.12400
H1155       H  0.70008771  0.75960720  0.76300379     0.11400
H1156       H  0.69830627  0.75252584  0.68215726     0.10700
H1157       H  0.68235109  0.75495488  0.60925857     0.16100
H1158       H  0.63705542  0.79089335  0.59638384     0.12000
H1159       H  0.64485190  0.81370702  0.81490117     0.14800
H1160       H  0.68741607  0.77472622  0.83042339     0.14600
C1161       C  0.84671419  0.80033498  0.35603101    -0.18300
C1162       C  0.84513386  0.80563970  0.31085826    -0.20400
C1163       C  0.84917365  0.79346923  0.27590503     0.20200
C1164       C  0.85503869  0.77582901  0.28658750    -0.03400
C1165       C  0.85678672  0.77054422  0.33200963    -0.06400
C1166       C  0.85248142  0.78281993  0.36693995     0.20500
C1167       C  0.86285770  0.75297083  0.34242681     0.18700
C1168       C  0.86707147  0.74081878  0.30763030    -0.17900
C1169       C  0.86523317  0.74602232  0.26262332    -0.20100
C1170       C  0.85919458  0.76344794  0.25189185     0.20100
C1171       C  0.85730864  0.76869158  0.20697005    -0.33100
C1172       C  0.85146157  0.78621844  0.19588893     0.00800
C1173       C  0.84749263  0.79860027  0.23049290    -0.24500
C1174       C  0.85414002  0.77736692  0.41208820    -0.29000
C1175       C  0.86040545  0.75995767  0.42241866     0.06500
C1176       C  0.86468857  0.74784481  0.38748784    -0.27700
H1177       H  0.84345047  0.80994346  0.38244712     0.11200
H1178       H  0.84067805  0.81923980  0.30325705     0.12400
H1179       H  0.87176583  0.72729827  0.31523163     0.11400
H1180       H  0.86853805  0.73642062  0.23619403     0.10700
H1181       H  0.86067104  0.75909191  0.18055036     0.16100
H1182       H  0.84314225  0.81217110  0.22212936     0.12000
H1183       H  0.85090877  0.78673239  0.43910353     0.14800
H1184       H  0.86935375  0.73432874  0.39540429     0.14600
C1185       C  0.82054992  0.76978579  0.83152321    -0.18300
C1186       C  0.81869739  0.76438347  0.78644406    -0.20400
C1187       C  0.83307660  0.75599314  0.76391707     0.20200
C1188       C  0.84944856  0.75284763  0.78721351    -0.03400
C1189       C  0.85142655  0.75859247  0.83229611    -0.06400
C1190       C  0.83689188  0.76711040  0.85455407     0.20500
C1191       C  0.86804268  0.75607625  0.85482574     0.18700
C1192       C  0.88236010  0.74744515  0.83266239    -0.17900
C1193       C  0.88030323  0.74147606  0.78819782    -0.20100
C1194       C  0.86395085  0.74420400  0.76525651     0.20100
C1195       C  0.86192551  0.73863004  0.72050428    -0.33100
C1196       C  0.84581682  0.74200960  0.69694174     0.00800
C1197       C  0.83147051  0.75082506  0.71843914    -0.24500
C1198       C  0.83911083  0.77316723  0.89907951    -0.29000
C1199       C  0.85582587  0.77126243  0.92085324     0.06500
C1200       C  0.87015673  0.76254810  0.89884471    -0.27700
H1201       H  0.80928291  0.77630590  0.84817243     0.11200
H1202       H  0.80603712  0.76681336  0.76916174     0.12400
H1203       H  0.89517346  0.74540234  0.84963475     0.11400
H1204       H  0.89154679  0.73489561  0.77159558     0.10700
H1205       H  0.87312701  0.73213813  0.70339339     0.16100
H1206       H  0.81912129  0.75348011  0.69994012     0.12000
H1207       H  0.82809552  0.77995112  0.91617313     0.14800
H1208       H  0.88300441  0.76089080  0.91598147     0.14600
C1209       C  0.74229193  0.77845957  0.04775685    -0.18300
C1210       C  0.76076274  0.77821274  0.05684406    -0.20400
C1211       C  0.77134060  0.79364605  0.04931010     0.20200
C1212       C  0.76324207  0.80961975  0.03325858    -0.03400
C1213       C  0.74451651  0.80986006  0.02391862    -0.06400
C1214       C  0.73413243  0.79411489  0.03076554     0.20500
C1215       C  0.73628392  0.82564356  0.00677155     0.18700
C1216       C  0.74690863  0.84116850  0.00019688    -0.17900
C1217       C  0.76551105  0.84093908  0.00959888    -0.20100
C1218       C  0.77389044  0.82517976  0.02578098     0.20100
C1219       C  0.79269531  0.82455930  0.03405906    -0.33100
C1220       C  0.80086534  0.80848253  0.04938054     0.00800
C1221       C  0.78992991  0.79320670  0.05712851    -0.24500
C1222       C  0.71588015  0.79401416  0.01907030    -0.29000
C1223       C  0.70768615  0.80931481  0.99996709     0.06500
C1224       C  0.71777138  0.82534422  0.99517968    -0.27700
H1225       H  0.73444131  0.76629690  0.05327191     0.11200
H1226       H  0.76682182  0.76586505  0.06933252     0.12400
H1227       H  0.74088246  0.85343266  0.98715800     0.11400
H1228       H  0.77338594  0.85304752  0.00371215     0.10700
H1229       H  0.80094880  0.83639197  0.02787356     0.16100
H1230       H  0.79591255  0.78074205  0.06917193     0.12000
H1231       H  0.70808874  0.78172841  0.02366484     0.14800
H1232       H  0.71148326  0.83719658  0.98059051     0.14600
C1233       C  0.88326848  0.86463288  0.80816457    -0.18300
C1234       C  0.87341358  0.85453826  0.83941695    -0.20400
C1235       C  0.87475854  0.85835684  0.88573586     0.20200
C1236       C  0.88513410  0.87326705  0.90058532    -0.03400
C1237       C  0.89515499  0.88340714  0.86907325    -0.06400
C1238       C  0.89463478  0.87864395  0.82286645     0.20500
C1239       C  0.90687487  0.89725375  0.88425375     0.18700
C1240       C  0.90752845  0.90160594  0.93038279    -0.17900
C1241       C  0.89751282  0.89160278  0.96161928    -0.20100
C1242       C  0.88672727  0.87707218  0.94720828     0.20100
C1243       C  0.87879379  0.86535167  0.97866505    -0.33100
C1244       C  0.86996132  0.84959785  0.96392530     0.00800
C1245       C  0.86722917  0.84662023  0.91759253    -0.24500
C1246       C  0.90663443  0.88688387  0.79286468    -0.29000
C1247       C  0.91924087  0.89956225  0.80861783     0.06500
C1248       C  0.91882674  0.90537845  0.85365564    -0.27700
H1249       H  0.88267790  0.86091580  0.77276378     0.11200
H1250       H  0.86539603  0.84321136  0.82753808     0.12400
H1251       H  0.91639131  0.91221531  0.94253092     0.11400
H1252       H  0.89885897  0.89470509  0.99726971     0.10700
H1253       H  0.88114737  0.86743928  0.01448735     0.16100
H1254       H  0.86047489  0.83437407  0.90641427     0.12000
H1255       H  0.90727205  0.88231962  0.75803402     0.14800
H1256       H  0.92884746  0.91496177  0.86559270     0.14600
C1257       C  0.95922944  0.87609971  0.08821361    -0.18300
C1258       C  0.94423958  0.86660819  0.07193868    -0.20400
C1259       C  0.93357129  0.85629514  0.10135446     0.20200
C1260       C  0.93796791  0.85555523  0.14768532    -0.03400
C1261       C  0.95331939  0.86491753  0.16401155    -0.06400
C1262       C  0.96389093  0.87534555  0.13412233     0.20500
C1263       C  0.95813686  0.86376959  0.21007732     0.18700
C1264       C  0.94731701  0.85356735  0.23950241    -0.17900
C1265       C  0.93190543  0.84454843  0.22345885    -0.20100
C1266       C  0.92712610  0.84536188  0.17755646     0.20100
C1267       C  0.91191729  0.83597677  0.16076879    -0.33100
C1268       C  0.90789850  0.83624063  0.11430299     0.00800
C1269       C  0.91872592  0.84652834  0.08503006    -0.24500
C1270       C  0.97896034  0.88480101  0.15057887    -0.29000
C1271       C  0.98398800  0.88356592  0.19624956     0.06500
C1272       C  0.97363322  0.87288865  0.22579667    -0.27700
H1273       H  0.96728380  0.88388216  0.06476227     0.11200
H1274       H  0.94100700  0.86730558  0.03625932     0.12400
H1275       H  0.95075651  0.85258654  0.27499945     0.11400
H1276       H  0.92381245  0.83678537  0.24692096     0.10700
H1277       H  0.90361921  0.82801697  0.18338940     0.16100
H1278       H  0.91552140  0.84694655  0.04926166     0.12000
H1279       H  0.98698467  0.89291638  0.12768813     0.14800
H1280       H  0.97739630  0.87206197  0.26114123     0.14600
C1281       C  0.55329688  0.82525560  0.89535315    -0.18300
C1282       C  0.53809474  0.83477988  0.88076918    -0.20400
C1283       C  0.53980320  0.85252328  0.86471960     0.20200
C1284       C  0.55705441  0.86060851  0.86221597    -0.03400
C1285       C  0.57245227  0.85082699  0.87589147    -0.06400
C1286       C  0.57047230  0.83321856  0.89340459     0.20500
C1287       C  0.58974247  0.85883512  0.87320320     0.18700
C1288       C  0.59145770  0.87647734  0.85639817    -0.17900
C1289       C  0.57614475  0.88630665  0.84362212    -0.20100
C1290       C  0.55887876  0.87857668  0.84691964     0.20100
C1291       C  0.54338378  0.88852002  0.83565991    -0.33100
C1292       C  0.52622312  0.88048879  0.83812837     0.00800
C1293       C  0.52453645  0.86241806  0.85178794    -0.24500
C1294       C  0.58561889  0.82408546  0.90994078    -0.29000
C1295       C  0.60278025  0.83215237  0.90849490     0.06500
C1296       C  0.60488650  0.84929093  0.88886808    -0.27700
H1297       H  0.55159885  0.81171059  0.90855445     0.11200
H1298       H  0.52495870  0.82839276  0.88284263     0.12400
H1299       H  0.60461380  0.88281955  0.85402865     0.11400
H1300       H  0.57779208  0.90001615  0.83155109     0.10700
H1301       H  0.54464906  0.90237609  0.82427502     0.16100
H1302       H  0.51126848  0.85624825  0.85342709     0.12000
H1303       H  0.58402800  0.81079922  0.92485159     0.14800
H1304       H  0.61811714  0.85557112  0.88813769     0.14600
C1305       C  0.39341377  0.19049270  0.64680607    -0.18300
C1306       C  0.38395456  0.20579701  0.63252054    -0.20400
C1307       C  0.39325889  0.22119131  0.61761256     0.20200
C1308       C  0.41231181  0.22122756  0.61741796    -0.03400
C1309       C  0.42188850  0.20583510  0.63248362    -0.06400
C1310       C  0.41235599  0.19036558  0.64682543     0.20500
C1311       C  0.44095247  0.20595181  0.63338554     0.18700
C1312       C  0.45023384  0.22141319  0.61860421    -0.17900
C1313       C  0.44074353  0.23654875  0.60290382    -0.20100
C1314       C  0.42177822  0.23661275  0.60219481     0.20100
C1315       C  0.41210868  0.25173950  0.58653605    -0.33100
C1316       C  0.39307746  0.25179702  0.58669957     0.00800
C1317       C  0.38381012  0.23648763  0.60271763    -0.24500
C1318       C  0.42188277  0.17508596  0.66143470    -0.29000
C1319       C  0.44086370  0.17511923  0.66321778     0.06500
C1320       C  0.45033357  0.19066716  0.64933261    -0.27700
H1321       H  0.38590568  0.17876835  0.65801401     0.11200
H1322       H  0.36932575  0.20555586  0.63293551     0.12400
H1323       H  0.46485353  0.22177977  0.61901902     0.11400
H1324       H  0.44825289  0.24824732  0.59146678     0.10700
H1325       H  0.41938794  0.26349679  0.57452211     0.16100
H1326       H  0.36917267  0.23633743  0.60289416     0.12000
H1327       H  0.41446392  0.16332310  0.67285119     0.14800
H1328       H  0.46495557  0.19084084  0.65087620     0.14600
C1329       C  0.41353982  0.13694380  0.93003237    -0.18300
C1330       C  0.40316166  0.14640072  0.96153823    -0.20400
C1331       C  0.39003829  0.15877233  0.94708760     0.20200
C1332       C  0.38663064  0.16097677  0.90047733    -0.03400
C1333       C  0.39706878  0.15139283  0.86867795    -0.06400
C1334       C  0.41090845  0.13969098  0.88363222     0.20500
C1335       C  0.39462982  0.15461440  0.82205611     0.18700
C1336       C  0.38120326  0.16666875  0.80761084    -0.17900
C1337       C  0.37090265  0.17622603  0.83916378    -0.20100
C1338       C  0.37385570  0.17384989  0.88560596     0.20100
C1339       C  0.36546300  0.18518803  0.91725935    -0.33100
C1340       C  0.36982335  0.18379828  0.96319793     0.00800
C1341       C  0.38141618  0.17009636  0.97818939    -0.24500
C1342       C  0.42275574  0.13206095  0.85212111    -0.29000
C1343       C  0.42095424  0.13610406  0.80618278     0.06500
C1344       C  0.40657481  0.14681487  0.79101001    -0.27700
H1345       H  0.42409278  0.12801694  0.94196668     0.11200
H1346       H  0.40592464  0.14460297  0.99722024     0.12400
H1347       H  0.37917811  0.16925956  0.77195033     0.11400
H1348       H  0.36114205  0.18602990  0.82722745     0.10700
H1349       H  0.35689109  0.19615796  0.90587274     0.16100
H1350       H  0.38509074  0.16947453  0.01366887     0.12000
H1351       H  0.43421439  0.12417801  0.86353900     0.14800
H1352       H  0.40562553  0.15025807  0.75547653     0.14600
C1353       C  0.43282344  0.01033757  0.78430435    -0.18300
C1354       C  0.43238072  0.02890433  0.77414728    -0.20400
C1355       C  0.44760411  0.03763436  0.75598903     0.20200
C1356       C  0.46324003  0.02732034  0.74700457    -0.03400
C1357       C  0.46359214  0.00858572  0.75664986    -0.06400
C1358       C  0.44843135  0.00003477  0.77608728     0.20500
C1359       C  0.47932496  0.99851564  0.74766306     0.18700
C1360       C  0.49443587  0.00703317  0.72874893    -0.17900
C1361       C  0.49417336  0.02552599  0.71979282    -0.20100
C1362       C  0.47875508  0.03578888  0.72929247     0.20100
C1363       C  0.47884523  0.05446298  0.72237565    -0.33100
C1364       C  0.46360952  0.06499462  0.73210726     0.00800
C1365       C  0.44776172  0.05649078  0.74775136    -0.24500
C1366       C  0.44934819  0.98148360  0.78755087    -0.29000
C1367       C  0.46520971  0.97144730  0.77918614     0.06500
C1368       C  0.47994388  0.98015553  0.75851477    -0.27700
H1369       H  0.42098477  0.00406674  0.79898389     0.11200
H1370       H  0.42021788  0.03650525  0.78126065     0.12400
H1371       H  0.50658995  0.99944210  0.72157578     0.11400
H1372       H  0.50613750  0.03185308  0.70593687     0.10700
H1373       H  0.49095784  0.06094133  0.70969760     0.16100
H1374       H  0.43594942  0.06458985  0.75523065     0.12000
H1375       H  0.43788124  0.97496689  0.80339344     0.14800
H1376       H  0.49225752  0.97274003  0.75179720     0.14600
C1377       C  0.60723877  0.85440720  0.43700343    -0.18300
C1378       C  0.61716241  0.83931626  0.45084841    -0.20400
C1379       C  0.61101099  0.82177855  0.44112824     0.20200
C1380       C  0.59452953  0.81939537  0.41790672    -0.03400
C1381       C  0.58462765  0.83464329  0.40338064    -0.06400
C1382       C  0.59106147  0.85223505  0.41284800     0.20500
C1383       C  0.56854256  0.83227785  0.37845551     0.18700
C1384       C  0.56217378  0.81473480  0.36966357    -0.17900
C1385       C  0.57181426  0.79963284  0.38476445    -0.20100
C1386       C  0.58810835  0.80179597  0.40848789     0.20100
C1387       C  0.59822367  0.78671183  0.42239582    -0.33100
C1388       C  0.61491236  0.78902593  0.44446934     0.00800
C1389       C  0.62115919  0.80660745  0.45380157    -0.24500
C1390       C  0.58152774  0.86731799  0.39675447    -0.29000
C1391       C  0.56596629  0.86501618  0.37012473     0.06500
C1392       C  0.55941130  0.84747080  0.36166966    -0.27700
H1393       H  0.61238290  0.86779471  0.44453968     0.11200
H1394       H  0.62974339  0.84136945  0.46887292     0.12400
H1395       H  0.54980454  0.81268597  0.35071171     0.11400
H1396       H  0.56666155  0.78624197  0.37726699     0.10700
H1397       H  0.59333866  0.77318774  0.41512069     0.16100
H1398       H  0.63388481  0.80847477  0.47136066     0.12000
H1399       H  0.58673795  0.88080525  0.40288734     0.14800
H1400       H  0.54737458  0.84565515  0.34122477     0.14600
C1401       C  0.60128890  0.89915118  0.10264983    -0.18300
C1402       C  0.61137375  0.88852502  0.07286349    -0.20400
C1403       C  0.62012996  0.87289365  0.08824965     0.20200
C1404       C  0.61957541  0.86844167  0.13456517    -0.03400
C1405       C  0.60985903  0.87948576  0.16487991    -0.06400
C1406       C  0.60010467  0.89451543  0.14846434     0.20500
C1407       C  0.60888406  0.87477774  0.21099218     0.18700
C1408       C  0.61800122  0.85937489  0.22658342    -0.17900
C1409       C  0.62720716  0.84815750  0.19629349    -0.20100
C1410       C  0.62773621  0.85235821  0.15009285     0.20100
C1411       C  0.63532361  0.84029203  0.11877163    -0.33100
C1412       C  0.63526211  0.84438520  0.07242058     0.00800
C1413       C  0.62840060  0.86104826  0.05767557    -0.24500
C1414       C  0.58836148  0.90382413  0.17743941    -0.29000
C1415       C  0.58676302  0.89861516  0.22275074     0.06500
C1416       C  0.59770792  0.88474323  0.23993331    -0.27700
H1417       H  0.59399201  0.91069991  0.08959471     0.11200
H1418       H  0.61168790  0.89211312  0.03739812     0.12400
H1419       H  0.61735631  0.85557770  0.26187713     0.11400
H1420       H  0.63350156  0.83593176  0.20882569     0.10700
H1421       H  0.64059877  0.82740124  0.13012486     0.16100
H1422       H  0.62809694  0.86408417  0.02184210     0.12000
H1423       H  0.57971086  0.91439448  0.16428764     0.14800
H1424       H  0.59610070  0.88051616  0.27477747     0.14600
C1425       C  0.52125612  0.94999340  0.06933844    -0.18300
C1426       C  0.51555339  0.95177420  0.02446243    -0.20400
C1427       C  0.50006283  0.94267634  0.00916680     0.20200
C1428       C  0.48973222  0.93240041  0.03989531    -0.03400
C1429       C  0.49569483  0.93023956  0.08467113    -0.06400
C1430       C  0.51169205  0.93886568  0.09931104     0.20500
C1431       C  0.48607932  0.91875430  0.11416807     0.18700
C1432       C  0.47001750  0.91054137  0.09978108    -0.17900
C1433       C  0.46389993  0.91300219  0.05568206    -0.20100
C1434       C  0.47394394  0.92346069  0.02530277     0.20100
C1435       C  0.46905371  0.92414665  0.97992447    -0.33100
C1436       C  0.48015249  0.93292676  0.94837254     0.00800
C1437       C  0.49525650  0.94278522  0.96331297    -0.24500
C1438       C  0.51812733  0.93562943  0.14311680    -0.29000
C1439       C  0.50906419  0.92337880  0.17118835     0.06500
C1440       C  0.49300123  0.91520906  0.15706363    -0.27700
H1441       H  0.53347189  0.95680418  0.08016145     0.11200
H1442       H  0.52352324  0.95987490  0.00143519     0.12400
H1443       H  0.46241873  0.90188118  0.12230208     0.11400
H1444       H  0.45170268  0.90614853  0.04483606     0.10700
H1445       H  0.45728688  0.91663068  0.96875746     0.16100
H1446       H  0.50369206  0.94980026  0.93910854     0.12000
H1447       H  0.53050183  0.94196045  0.15471565     0.14800
H1448       H  0.48598685  0.90600901  0.17951765     0.14600
C1449       C  0.53636939  0.93038147  0.60548633    -0.18300
C1450       C  0.54112177  0.93280016  0.56019749    -0.20400
C1451       C  0.52928334  0.92746466  0.52559655     0.20200
C1452       C  0.51245031  0.91967970  0.53673790    -0.03400
C1453       C  0.50776131  0.91704904  0.58225550    -0.06400
C1454       C  0.51976253  0.92247325  0.61681584     0.20500
C1455       C  0.49108825  0.90891703  0.59313345     0.18700
C1456       C  0.47916617  0.90367887  0.55867824    -0.17900
C1457       C  0.48375232  0.90641856  0.51356176    -0.20100
C1458       C  0.50035550  0.91433933  0.50239507     0.20100
C1459       C  0.50517160  0.91670516  0.45736162    -0.33100
C1460       C  0.52207038  0.92403072  0.44587175     0.00800
C1461       C  0.53404788  0.92951294  0.48007386    -0.24500
C1462       C  0.51493323  0.91986285  0.66204975    -0.29000
C1463       C  0.49839520  0.91166841  0.67289250     0.06500
C1464       C  0.48658744  0.90618402  0.63830714    -0.27700
H1465       H  0.54571964  0.93460222  0.63164244     0.11200
H1466       H  0.55407880  0.93880629  0.55223111     0.12400
H1467       H  0.46630384  0.89745636  0.56663211     0.11400
H1468       H  0.47438212  0.90222655  0.48740049     0.10700
H1469       H  0.49589313  0.91228724  0.43118818     0.16100
H1470       H  0.54708935  0.93516176  0.47129975     0.12000
H1471       H  0.52406794  0.92406834  0.68872900     0.14800
H1472       H  0.47371438  0.90001769  0.64654321     0.14600
C1473       C  0.42373928  0.15657285  0.13438662    -0.18300
C1474       C  0.43897642  0.14739560  0.14999138    -0.20400
C1475       C  0.45476664  0.15693204  0.16098272     0.20200
C1476       C  0.45529562  0.17588274  0.15611760    -0.03400
C1477       C  0.43996303  0.18512802  0.13994548    -0.06400
C1478       C  0.42409394  0.17540979  0.12932937     0.20500
C1479       C  0.44054370  0.20404671  0.13417766     0.18700
C1480       C  0.45640797  0.21354416  0.14487195    -0.17900
C1481       C  0.47155319  0.20439504  0.16147248    -0.20100
C1482       C  0.47113665  0.18557376  0.16730037     0.20100
C1483       C  0.48625678  0.17623234  0.18389691    -0.33100
C1484       C  0.48579487  0.15732127  0.18834105     0.00800
C1485       C  0.47003652  0.14779749  0.17667794    -0.24500
C1486       C  0.40891347  0.18465720  0.11335564    -0.29000
C1487       C  0.40945240  0.20346560  0.10700239     0.06500
C1488       C  0.42530773  0.21308644  0.11745782    -0.27700
H1489       H  0.41168462  0.14892137  0.12612664     0.11200
H1490       H  0.43840446  0.13284542  0.15353207     0.12400
H1491       H  0.45708712  0.22806802  0.14050411     0.11400
H1492       H  0.48361905  0.21204014  0.16964206     0.10700
H1493       H  0.49846041  0.18359527  0.19255880     0.16100
H1494       H  0.46959105  0.13323594  0.18033056     0.12000
H1495       H  0.39683053  0.17712001  0.10462130     0.14800
H1496       H  0.42580697  0.22759028  0.11238690     0.14600
C1497       C  0.54620844  0.10879720  0.96700227    -0.18300
C1498       C  0.54050813  0.11124591  0.92231593    -0.20400
C1499       C  0.52211923  0.11352868  0.91231586     0.20200
C1500       C  0.50929482  0.11270914  0.94748514    -0.03400
C1501       C  0.51500391  0.10978464  0.99232842    -0.06400
C1502       C  0.53359154  0.10831089  0.00229769     0.20500
C1503       C  0.50214158  0.10901064  0.02737114     0.18700
C1504       C  0.48372918  0.11087411  0.01732763    -0.17900
C1505       C  0.47810396  0.11414591  0.97304532    -0.20100
C1506       C  0.49079333  0.11531978  0.93807617     0.20100
C1507       C  0.48531727  0.11934635  0.89399242    -0.33100
C1508       C  0.49800282  0.12027586  0.85892824     0.00800
C1509       C  0.51633398  0.11700075  0.86799534    -0.24500
C1510       C  0.53921949  0.10713486  0.04750016    -0.29000
C1511       C  0.52644575  0.10702637  0.08255243     0.06500
C1512       C  0.50794142  0.10725968  0.07211130    -0.27700
H1513       H  0.56052109  0.10755899  0.97403381     0.11200
H1514       H  0.55051020  0.11177820  0.89572627     0.12400
H1515       H  0.47371066  0.11029812  0.04392376     0.11400
H1516       H  0.46385294  0.11597869  0.96623099     0.10700
H1517       H  0.47114361  0.12161962  0.88680897     0.16100
H1518       H  0.52610425  0.11773122  0.84085444     0.12000
H1519       H  0.55351088  0.10685814  0.05551178     0.14800
H1520       H  0.49804531  0.10733071  0.09906493     0.14600
C1521       C  0.46312647  0.11241451  0.46590349    -0.18300
C1522       C  0.46879153  0.11489461  0.42135737    -0.20400
C1523       C  0.48695634  0.11863408  0.41186581     0.20200
C1524       C  0.49959346  0.11981386  0.44752078    -0.03400
C1525       C  0.49395254  0.11694890  0.49230644    -0.06400
C1526       C  0.47558185  0.11341363  0.50153594     0.20500
C1527       C  0.50663625  0.11786525  0.52786552     0.18700
C1528       C  0.52476760  0.12184667  0.51848963    -0.17900
C1529       C  0.53031834  0.12495136  0.47409151    -0.20100
C1530       C  0.51783599  0.12395224  0.43845659     0.20100
C1531       C  0.52326177  0.12699182  0.39388370    -0.33100
C1532       C  0.51078440  0.12550772  0.35826782     0.00800
C1533       C  0.49270060  0.12125172  0.36734738    -0.24500
C1534       C  0.46993998  0.11129312  0.54629980    -0.29000
C1535       C  0.48251494  0.11223205  0.58162511     0.06500
C1536       C  0.50086192  0.11519738  0.57226555    -0.27700
H1537       H  0.44899329  0.10972039  0.47249090     0.11200
H1538       H  0.45894529  0.11401335  0.39435226     0.12400
H1539       H  0.53461968  0.12271764  0.54554103     0.11400
H1540       H  0.54435886  0.12810892  0.46760828     0.10700
H1541       H  0.53726333  0.13014790  0.38676119     0.16100
H1542       H  0.48308435  0.12023183  0.33980997     0.12000
H1543       H  0.45578238  0.10910306  0.55377545     0.14800
H1544       H  0.51050520  0.11629145  0.59978614     0.14600
C1545       C  0.57149874  0.00594814  0.22671027    -0.18300
C1546       C  0.57085738  0.02441317  0.21591814    -0.20400
C1547       C  0.55885538  0.03606037  0.23836528     0.20200
C1548       C  0.54761648  0.02902553  0.27254688    -0.03400
C1549       C  0.54826249  0.01044345  0.28341872    -0.06400
C1550       C  0.56014256  0.99875000  0.26016750     0.20500
C1551       C  0.53664412  0.00350822  0.31684546     0.18700
C1552       C  0.52483912  0.01510173  0.33982463    -0.17900
C1553       C  0.52422698  0.03343964  0.32915104    -0.20100
C1554       C  0.53540770  0.04047281  0.29531358     0.20100
C1555       C  0.53426751  0.05870229  0.28337940    -0.33100
C1556       C  0.54509118  0.06585132  0.24878016     0.00800
C1557       C  0.55758603  0.05449501  0.22677392    -0.24500
C1558       C  0.55995394  0.98005304  0.26986496    -0.29000
C1559       C  0.54777467  0.97307897  0.30192843     0.06500
C1560       C  0.53653731  0.98499590  0.32584172    -0.27700
H1561       H  0.58070921  0.99724782  0.20843143     0.11200
H1562       H  0.57961643  0.02954727  0.18959393     0.12400
H1563       H  0.51586488  0.00992618  0.36562656     0.11400
H1564       H  0.51481878  0.04208547  0.34696588     0.10700
H1565       H  0.52467738  0.06730462  0.30077093     0.16100
H1566       H  0.56596011  0.05986959  0.19994791     0.12000
H1567       H  0.56855109  0.97089476  0.25106384     0.14800
H1568       H  0.52722822  0.97971632  0.35081624     0.14600
C1569       C  0.94227678  0.73870336  0.12202620    -0.18300
C1570       C  0.95130500  0.72361228  0.13933152    -0.20400
C1571       C  0.94279260  0.70665148  0.14048147     0.20200
C1572       C  0.92514144  0.70478095  0.12321768    -0.03400
C1573       C  0.91603026  0.72001032  0.10579076    -0.06400
C1574       C  0.92457027  0.73710754  0.10556566     0.20500
C1575       C  0.89825385  0.71817846  0.08943195     0.18700
C1576       C  0.88984404  0.70116485  0.08976090    -0.17900
C1577       C  0.89886474  0.68609159  0.10700821    -0.20100
C1578       C  0.91644551  0.68778156  0.12420642     0.20100
C1579       C  0.92531176  0.67287368  0.14327233    -0.33100
C1580       C  0.94273168  0.67473600  0.16171519     0.00800
C1581       C  0.95147221  0.69163617  0.15949186    -0.24500
C1582       C  0.91513395  0.75233132  0.08974293    -0.29000
C1583       C  0.89723564  0.75064766  0.07441963     0.06500
C1584       C  0.88903990  0.73343667  0.07382521    -0.27700
H1585       H  0.94907452  0.75168014  0.12202876     0.11200
H1586       H  0.96489302  0.72525818  0.15235822     0.12400
H1587       H  0.87618641  0.69955710  0.07716439     0.11400
H1588       H  0.89200037  0.67314623  0.10740807     0.10700
H1589       H  0.91844748  0.65993224  0.14478121     0.16100
H1590       H  0.96493010  0.69323070  0.17343503     0.12000
H1591       H  0.92156263  0.76550449  0.09030104     0.14800
H1592       H  0.87528068  0.73189464  0.06183156     0.14600
C1593       C  0.91942191  0.65647233  0.47414889    -0.18300
C1594       C  0.92955513  0.64696004  0.44237105    -0.20400
C1595       C  0.92248671  0.64356513  0.39921040     0.20200
C1596       C  0.90465635  0.64884654  0.38865978    -0.03400
C1597       C  0.89447073  0.65862040  0.42064012    -0.06400
C1598       C  0.90215357  0.66281260  0.46301434     0.20500
C1599       C  0.87723083  0.66540229  0.40898125     0.18700
C1600       C  0.86990352  0.66122062  0.36643725    -0.17900
C1601       C  0.87997659  0.65139875  0.33475592    -0.20100
C1602       C  0.89758093  0.64566820  0.34500267     0.20100
C1603       C  0.90877234  0.63821296  0.31145471    -0.33100
C1604       C  0.92693600  0.63443809  0.32115410     0.00800
C1605       C  0.93345987  0.63636762  0.36535400    -0.24500
C1606       C  0.89310992  0.67450232  0.49213710    -0.29000
C1607       C  0.87676885  0.68253130  0.47920113     0.06500
C1608       C  0.86835068  0.67734859  0.43867698    -0.27700
H1609       H  0.92540712  0.65958299  0.50668572     0.11200
H1610       H  0.94319367  0.64290336  0.45092471     0.12400
H1611       H  0.85667388  0.66617661  0.35697018     0.11400
H1612       H  0.87430063  0.64899450  0.30152471     0.10700
H1613       H  0.90392377  0.63702728  0.27699573     0.16100
H1614       H  0.94756520  0.63368744  0.37237711     0.12000
H1615       H  0.89953053  0.67860001  0.52349652     0.14800
H1616       H  0.85579941  0.68372043  0.42867569     0.14600
C1617       C  0.00039127  0.52829446  0.24732216    -0.18300
C1618       C  0.00047825  0.50970775  0.25499216    -0.20400
C1619       C  0.98428789  0.50045939  0.26316439     0.20200
C1620       C  0.96778208  0.50994291  0.26309977    -0.03400
C1621       C  0.96766153  0.52873502  0.25455552    -0.06400
C1622       C  0.98409163  0.53788888  0.24718702     0.20500
C1623       C  0.95120109  0.53836708  0.25372959     0.18700
C1624       C  0.93501309  0.52898916  0.26180623    -0.17900
C1625       C  0.93516586  0.51037246  0.27110626    -0.20100
C1626       C  0.95148943  0.50069906  0.27200228     0.20100
C1627       C  0.95191388  0.48203978  0.28196578    -0.33100
C1628       C  0.96841760  0.47255969  0.28200290     0.00800
C1629       C  0.98444476  0.48191506  0.27198508    -0.24500
C1630       C  0.98405267  0.55652062  0.24001418    -0.29000
C1631       C  0.96783369  0.56633190  0.23910826     0.06500
C1632       C  0.95134410  0.55716379  0.24528429    -0.27700
H1633       H  0.01309188  0.53517662  0.24155003     0.11200
H1634       H  0.01324900  0.50258880  0.25499159     0.12400
H1635       H  0.92222991  0.53608990  0.26137424     0.11400
H1636       H  0.92249637  0.50353899  0.27766914     0.10700
H1637       H  0.93948078  0.47491097  0.28944126     0.16100
H1638       H  0.99724038  0.47482226  0.27225348     0.12000
H1639       H  0.99677999  0.56342596  0.23455719     0.14800
H1640       H  0.93879032  0.56467687  0.24458720     0.14600
C1641       C  0.06200463  0.36319063  0.46322502    -0.18300
C1642       C  0.04711379  0.37245204  0.44591209    -0.20400
C1643       C  0.04167062  0.36979588  0.40098133     0.20200
C1644       C  0.05117987  0.35756405  0.37321269    -0.03400
C1645       C  0.06645979  0.34845471  0.39047949    -0.06400
C1646       C  0.07182067  0.35128251  0.43573641     0.20500
C1647       C  0.07651151  0.33676115  0.36237228     0.18700
C1648       C  0.07078960  0.33387892  0.31763894    -0.17900
C1649       C  0.05543051  0.34267224  0.30073873    -0.20100
C1650       C  0.04561569  0.35469084  0.32807951     0.20100
C1651       C  0.03061420  0.36420647  0.31099017    -0.33100
C1652       C  0.02156520  0.37690886  0.33823080     0.00800
C1653       C  0.02708599  0.37945316  0.38321146    -0.24500
C1654       C  0.08704331  0.34235021  0.45264804    -0.29000
C1655       C  0.09740284  0.33104629  0.42470898     0.06500
C1656       C  0.09214287  0.32832646  0.37949405    -0.27700
H1657       H  0.06599654  0.36552884  0.49800072     0.11200
H1658       H  0.03990994  0.38178519  0.46761385     0.12400
H1659       H  0.07824764  0.32487401  0.29562326     0.11400
H1660       H  0.05138601  0.34027481  0.26604274     0.10700
H1661       H  0.02643445  0.36227812  0.27618661     0.16100
H1662       H  0.02003495  0.38910080  0.40442843     0.12000
H1663       H  0.09116902  0.34458351  0.48741486     0.14800
H1664       H  0.10006391  0.31950727  0.35800184     0.14600
C1665       C  0.96813860  0.70474938  0.69221452    -0.18300
C1666       C  0.95255747  0.71369010  0.67745931    -0.20400
C1667       C  0.93796043  0.70389670  0.65949636     0.20200
C1668       C  0.93905097  0.68489177  0.65648456    -0.03400
C1669       C  0.95489134  0.67591041  0.67057581    -0.06400
C1670       C  0.96950520  0.68587361  0.68867501     0.20500
C1671       C  0.95616735  0.65698133  0.66602507     0.18700
C1672       C  0.94156645  0.64715838  0.64824560    -0.17900
C1673       C  0.92580503  0.65602172  0.63481824    -0.20100
C1674       C  0.92443116  0.67486676  0.63872397     0.20100
C1675       C  0.90884377  0.68387766  0.62425301    -0.33100
C1676       C  0.90786581  0.70283793  0.62586871     0.00800
C1677       C  0.92244085  0.71276829  0.64371252    -0.24500
C1678       C  0.98528905  0.67680175  0.70224654    -0.29000
C1679       C  0.98677216  0.65797380  0.69670345     0.06500
C1680       C  0.97208764  0.64819633  0.67883641    -0.27700
H1681       H  0.97921285  0.71262702  0.70590561     0.11200
H1682       H  0.95194227  0.72828841  0.68000733     0.12400
H1683       H  0.94236542  0.63260196  0.64454970     0.11400
H1684       H  0.91475349  0.64815510  0.62097064     0.10700
H1685       H  0.89777924  0.67616672  0.60985944     0.16100
H1686       H  0.92178064  0.72740364  0.64475793     0.12000
H1687       H  0.99653983  0.68440344  0.71606684     0.14800
H1688       H  0.97301411  0.63364126  0.67505631     0.14600
C1689       C  0.98935328  0.60812887  0.51312305    -0.18300
C1690       C  0.98367382  0.61105266  0.46881571    -0.20400
C1691       C  0.99632893  0.61463938  0.43488335     0.20200
C1692       C  0.01493787  0.61479770  0.44519852    -0.03400
C1693       C  0.02065179  0.61219206  0.49017160    -0.06400
C1694       C  0.00774108  0.60900681  0.52420225     0.20500
C1695       C  0.03915116  0.61342746  0.50135023     0.18700
C1696       C  0.05183498  0.61631465  0.46686228    -0.17900
C1697       C  0.04619088  0.61849997  0.42195335    -0.20100
C1698       C  0.02774501  0.61809840  0.41088519     0.20100
C1699       C  0.02177095  0.62140132  0.36651740    -0.33100
C1700       C  0.00318620  0.62205703  0.35694633     0.00800
C1701       C  0.99061461  0.61846190  0.39101798    -0.24500
C1702       C  0.01328547  0.60754563  0.56911864    -0.29000
C1703       C  0.03150186  0.60988061  0.58110970     0.06500
C1704       C  0.04447455  0.61243258  0.54695670    -0.27700
H1705       H  0.97931492  0.60567323  0.53897173     0.11200
H1706       H  0.96936588  0.61078123  0.46121513     0.12400
H1707       H  0.06610946  0.61716788  0.47472297     0.11400
H1708       H  0.05621366  0.62094459  0.39607889     0.10700
H1709       H  0.03144710  0.62411928  0.33995513     0.16100
H1710       H  0.97632558  0.61858329  0.38320989     0.12000
H1711       H  0.00317182  0.60564787  0.59510522     0.14800
H1712       H  0.05857101  0.61414482  0.55595379     0.14600
C1713       C  0.96850708  0.61910734  0.92203413    -0.18300
C1714       C  0.96268820  0.61750093  0.96683070    -0.20400
C1715       C  0.97521220  0.61486755  0.00183880     0.20200
C1716       C  0.99376492  0.61347790  0.99142640    -0.03400
C1717       C  0.99966489  0.61548573  0.94645235    -0.06400
C1718       C  0.98697080  0.61839467  0.91159135     0.20500
C1719       C  0.01830737  0.61509334  0.93659554     0.18700
C1720       C  0.03081014  0.61188935  0.97128244    -0.17900
C1721       C  0.02493821  0.60957036  0.01569329    -0.20100
C1722       C  0.00650283  0.61061283  0.02611026     0.20100
C1723       C  0.00068117  0.60939187  0.07084118    -0.33100
C1724       C  0.98233691  0.61148595  0.08182560     0.00800
C1725       C  0.96961285  0.61405403  0.04713513    -0.24500
C1726       C  0.99302929  0.62108290  0.86719707    -0.29000
C1727       C  0.01159719  0.62163032  0.85785378     0.06500
C1728       C  0.02414871  0.61839278  0.89244311    -0.27700
H1729       H  0.95859525  0.62131226  0.89567922     0.11200
H1730       H  0.94839605  0.61850668  0.97414731     0.12400
H1731       H  0.04514196  0.61143108  0.96416247     0.11400
H1732       H  0.03485490  0.60735275  0.04206024     0.10700
H1733       H  0.01062221  0.60761982  0.09739413     0.16100
H1734       H  0.95545730  0.61568116  0.05543463     0.12000
H1735       H  0.98338998  0.62355020  0.84032049     0.14800
H1736       H  0.03846788  0.61853955  0.88490992     0.14600
C1737       C  0.04174718  0.42268988  0.10489052    -0.18300
C1738       C  0.04735896  0.42544644  0.06032293    -0.20400
C1739       C  0.03463413  0.42663725  0.02528863     0.20200
C1740       C  0.01604085  0.42549649  0.03541131    -0.03400
C1741       C  0.01040715  0.42232657  0.08012035    -0.06400
C1742       C  0.02333520  0.42084777  0.11501487     0.20500
C1743       C  0.99186278  0.42020748  0.08968865     0.18700
C1744       C  0.97908455  0.42197745  0.05497012    -0.17900
C1745       C  0.98465211  0.42541057  0.01078093    -0.20100
C1746       C  0.00307923  0.42691326  0.00064357     0.20100
C1747       C  0.00877147  0.42900724  0.95603137    -0.33100
C1748       C  0.02724829  0.42902137  0.94537540     0.00800
C1749       C  0.04014376  0.42823101  0.98015152    -0.24500
C1750       C  0.01761699  0.41726877  0.15923900    -0.29000
C1751       C  0.99922326  0.41460878  0.16852648     0.06500
C1752       C  0.98642972  0.41613422  0.13371415    -0.27700
H1753       H  0.05182435  0.42163869  0.13130577     0.11200
H1754       H  0.06167319  0.42639569  0.05316996     0.12400
H1755       H  0.96480363  0.42050732  0.06191027     0.11400
H1756       H  0.97456831  0.42646257  0.98434914     0.10700
H1757       H  0.99876438  0.42944780  0.92926722     0.16100
H1758       H  0.05440560  0.42831476  0.97195270     0.12000
H1759       H  0.02746639  0.41611409  0.18620585     0.14800
H1760       H  0.97221138  0.41436222  0.14107411     0.14600
C1761       C  0.96796506  0.42452251  0.60437029    -0.18300
C1762       C  0.96269041  0.42710283  0.55942753    -0.20400
C1763       C  0.97560139  0.42725765  0.52479175     0.20200
C1764       C  0.99404897  0.42515877  0.53561113    -0.03400
C1765       C  0.99931591  0.42214033  0.58071496    -0.06400
C1766       C  0.98620024  0.42178063  0.61528035     0.20500
C1767       C  0.01766149  0.41906637  0.59103355     0.18700
C1768       C  0.03064819  0.41971679  0.55666623    -0.17900
C1769       C  0.02546057  0.42301316  0.51207989    -0.20100
C1770       C  0.00720042  0.42550450  0.50119241     0.20100
C1771       C  0.00180910  0.42760660  0.45625364    -0.33100
C1772       C  0.98341134  0.42871761  0.44501548     0.00800
C1773       C  0.97037185  0.42884656  0.47941443    -0.24500
C1774       C  0.99155023  0.41836020  0.65994323    -0.29000
C1775       C  0.00971709  0.41469612  0.66991238     0.06500
C1776       C  0.02268835  0.41514391  0.63544700    -0.27700
H1777       H  0.95774051  0.42431407  0.63048646     0.11200
H1778       H  0.94849250  0.42877503  0.55170127     0.12400
H1779       H  0.04478428  0.41748266  0.56420171     0.11400
H1780       H  0.03569116  0.42320793  0.48594684     0.10700
H1781       H  0.01190101  0.42727520  0.42975447     0.16100
H1782       H  0.95617783  0.42972839  0.47076115     0.12000
H1783       H  0.98157525  0.41805746  0.68668957     0.14800
H1784       H  0.03675881  0.41262686  0.64337358     0.14600
C1785       C  0.01399800  0.53093912  0.78767752    -0.18300
C1786       C  0.01338997  0.51234003  0.79490902    -0.20400
C1787       C  0.02862870  0.50166591  0.78654564     0.20200
C1788       C  0.04474251  0.50978165  0.77120112    -0.03400
C1789       C  0.04524634  0.52859368  0.76303496    -0.06400
C1790       C  0.02977645  0.53911405  0.77137108     0.20500
C1791       C  0.06107409  0.53682242  0.74611822     0.18700
C1792       C  0.07642423  0.52606326  0.73871611    -0.17900
C1793       C  0.07604464  0.50741778  0.74769591    -0.20100
C1794       C  0.06023482  0.49909528  0.76371208     0.20100
C1795       C  0.05950459  0.48032702  0.77211422    -0.33100
C1796       C  0.04325489  0.47224127  0.78624619     0.00800
C1797       C  0.02794373  0.48299838  0.79320540    -0.24500
C1798       C  0.03012253  0.55762022  0.76260492    -0.29000
C1799       C  0.04555035  0.56605750  0.74447171     0.06500
C1800       C  0.06110842  0.55555419  0.73650417    -0.27700
H1801       H  0.00202423  0.53891086  0.79426946     0.11200
H1802       H  0.00097512  0.50629321  0.80697672     0.12400
H1803       H  0.08873539  0.53206297  0.72590070     0.11400
H1804       H  0.08807473  0.49947488  0.74167097     0.10700
H1805       H  0.07132827  0.47199673  0.76672280     0.16100
H1806       H  0.01549302  0.47679802  0.80469002     0.12000
H1807       H  0.01799472  0.56539849  0.76896915     0.14800
H1808       H  0.07308967  0.56187472  0.72271234     0.14600
C1809       C  0.11736673  0.34958884  0.88123229    -0.18300
C1810       C  0.12700418  0.33399284  0.89282425    -0.20400
C1811       C  0.11785444  0.31805583  0.90458487     0.20200
C1812       C  0.09879543  0.31780646  0.90426105    -0.03400
C1813       C  0.08907704  0.33349772  0.89223672    -0.06400
C1814       C  0.09840803  0.34949580  0.88091727     0.20500
C1815       C  0.07002649  0.33312771  0.89131574     0.18700
C1816       C  0.06087553  0.31716156  0.90267035    -0.17900
C1817       C  0.07048663  0.30170083  0.91512802    -0.20100
C1818       C  0.08941870  0.30190901  0.91619288     0.20100
C1819       C  0.09910386  0.28658041  0.92968142    -0.33100
C1820       C  0.11806998  0.28681454  0.93102302     0.00800
C1821       C  0.12738613  0.30247315  0.91743671    -0.24500
C1822       C  0.08861912  0.36498179  0.86859280    -0.29000
C1823       C  0.06962601  0.36455901  0.86644822     0.06500
C1824       C  0.06045381  0.34860967  0.87826376    -0.27700
H1825       H  0.12475172  0.36171876  0.87234762     0.11200
H1826       H  0.14162121  0.33443231  0.89286948     0.12400
H1827       H  0.04625581  0.31663832  0.90199293     0.11400
H1828       H  0.06309987  0.28957689  0.92404779     0.10700
H1829       H  0.09185644  0.27447439  0.93955070     0.16100
H1830       H  0.14201253  0.30273061  0.91836760     0.12000
H1831       H  0.09581426  0.37712573  0.85883017     0.14800
H1832       H  0.04583361  0.34814851  0.87648740     0.14600
C1833       C  0.10502960  0.38973367  0.56470789    -0.18300
C1834       C  0.09472434  0.39970556  0.59549711    -0.20400
C1835       C  0.09686078  0.39707874  0.64213741     0.20200
C1836       C  0.11013014  0.38491349  0.65798440    -0.03400
C1837       C  0.12039008  0.37474214  0.62695834    -0.06400
C1838       C  0.11756767  0.37691282  0.58008012     0.20500
C1839       C  0.13248607  0.36145602  0.64291131     0.18700
C1840       C  0.13500225  0.35917245  0.68952576    -0.17900
C1841       C  0.12495821  0.36934969  0.72025658    -0.20100
C1842       C  0.11218764  0.38187474  0.70479974     0.20100
C1843       C  0.10046062  0.39031208  0.73512786    -0.33100
C1844       C  0.08650283  0.40134939  0.71923016     0.00800
C1845       C  0.08506493  0.40526468  0.67306329    -0.24500
C1846       C  0.12629350  0.36528039  0.54963653    -0.29000
C1847       C  0.13721423  0.35116280  0.56573066     0.06500
C1848       C  0.14080919  0.34976206  0.61214885    -0.27700
H1849       H  0.10267226  0.39152834  0.52886149     0.11200
H1850       H  0.08462183  0.40898914  0.58279929     0.12400
H1851       H  0.14425515  0.34904538  0.70220855     0.11400
H1852       H  0.12664420  0.36688339  0.75612388     0.10700
H1853       H  0.10114069  0.38703265  0.77084367     0.16100
H1854       H  0.07392771  0.41346254  0.66104422     0.12000
H1855       H  0.12318532  0.36607760  0.51387631     0.14800
H1856       H  0.14908005  0.33872966  0.62448481     0.14600
C1857       C  0.10358551  0.89366389  0.47160525    -0.18300
C1858       C  0.09349621  0.90352008  0.44010966    -0.20400
C1859       C  0.09573251  0.90047821  0.39362472     0.20200
C1860       C  0.10896282  0.88808011  0.37870397    -0.03400
C1861       C  0.11908549  0.87809850  0.41045826    -0.06400
C1862       C  0.11605336  0.88059808  0.45713521     0.20500
C1863       C  0.13126614  0.86468437  0.39543947     0.18700
C1864       C  0.13383700  0.86197329  0.34898844    -0.17900
C1865       C  0.12388135  0.87190558  0.31755650    -0.20100
C1866       C  0.11114154  0.88464803  0.33209179     0.20100
C1867       C  0.09957814  0.89293619  0.30102693    -0.33100
C1868       C  0.08562492  0.90419981  0.31595301     0.00800
C1869       C  0.08407519  0.90849072  0.36197399    -0.24500
C1870       C  0.12456819  0.86909445  0.48823068    -0.29000
C1871       C  0.13593735  0.85515649  0.47312989     0.06500
C1872       C  0.13967340  0.85334707  0.42698251    -0.27700
H1873       H  0.10113430  0.89577461  0.50734375     0.11200
H1874       H  0.08346771  0.91300889  0.45212510     0.12400
H1875       H  0.14310591  0.85171920  0.33696120     0.11400
H1876       H  0.12564545  0.86911644  0.28186767     0.10700
H1877       H  0.10039035  0.88938366  0.26549468     0.16100
H1878       H  0.07297490  0.91686505  0.37332694     0.12000
H1879       H  0.12130650  0.87006772  0.52388452     0.14800
H1880       H  0.14800285  0.84220480  0.41546743     0.14600
C1881       C  0.04071608  0.83271850  0.68793734    -0.18300
C1882       C  0.05619407  0.82369240  0.67263602    -0.20400
C1883       C  0.07088733  0.83341708  0.65508227     0.20200
C1884       C  0.06990241  0.85244745  0.65282664    -0.03400
C1885       C  0.05414338  0.86152705  0.66745241    -0.06400
C1886       C  0.03951630  0.85164336  0.68547473     0.20500
C1887       C  0.05303158  0.88049759  0.66388290     0.18700
C1888       C  0.06764683  0.89024149  0.64611903    -0.17900
C1889       C  0.08331687  0.88129707  0.63228761    -0.20100
C1890       C  0.08459682  0.86242692  0.63555871     0.20100
C1891       C  0.10018747  0.85337225  0.62105797    -0.33100
C1892       C  0.10114840  0.83439198  0.62206256     0.00800
C1893       C  0.08641755  0.82448482  0.63913030    -0.24500
C1894       C  0.02399244  0.86086602  0.70058019    -0.29000
C1895       C  0.02278446  0.87981982  0.69694528     0.06500
C1896       C  0.03736714  0.88944801  0.67819227    -0.27700
H1897       H  0.02962684  0.82487089  0.70149171     0.11200
H1898       H  0.05668127  0.80907759  0.67461465     0.12400
H1899       H  0.06698550  0.90481260  0.64307014     0.11400
H1900       H  0.09441352  0.88914781  0.61874708     0.10700
H1901       H  0.11131209  0.86108826  0.60712620     0.16100
H1902       H  0.08700938  0.80984283  0.63966786     0.12000
H1903       H  0.01280306  0.85330059  0.71467078     0.14800
H1904       H  0.03665824  0.90403238  0.67532618     0.14600
C1905       C  0.11849696  0.68896401  0.63741997    -0.18300
C1906       C  0.12788814  0.70416797  0.62196171    -0.20400
C1907       C  0.11855535  0.71981690  0.60893648     0.20200
C1908       C  0.09951933  0.72004381  0.61093992    -0.03400
C1909       C  0.09002776  0.70474083  0.62712064    -0.06400
C1910       C  0.09958696  0.68914721  0.64044649     0.20500
C1911       C  0.07102862  0.70515857  0.63065358     0.18700
C1912       C  0.06168544  0.72071371  0.61683350    -0.17900
C1913       C  0.07106070  0.73575705  0.60015916    -0.20100
C1914       C  0.08998696  0.73563630  0.59742430     0.20100
C1915       C  0.09955015  0.75090255  0.58213573    -0.33100
C1916       C  0.11856372  0.75096805  0.58128601     0.00800
C1917       C  0.12792966  0.73529648  0.59453808    -0.24500
C1918       C  0.09013691  0.67413004  0.65733826    -0.29000
C1919       C  0.07123137  0.67454314  0.66215068     0.06500
C1920       C  0.06176931  0.69014113  0.64854852    -0.27700
H1921       H  0.12605457  0.67711403  0.64753977     0.11200
H1922       H  0.14250818  0.70372217  0.62047507     0.12400
H1923       H  0.04710001  0.72128508  0.61912859     0.11400
H1924       H  0.06350195  0.74759641  0.58993364     0.10700
H1925       H  0.09221380  0.76291195  0.57206417     0.16100
H1926       H  0.14257763  0.73513630  0.59354585     0.12000
H1927       H  0.09759693  0.66231215  0.66821905     0.14800
H1928       H  0.04721230  0.69062479  0.65212937     0.14600
C1929       C  0.40965299  0.89991778  0.60894643    -0.18300
C1930       C  0.40016431  0.88974415  0.57683689    -0.20400
C1931       C  0.39090219  0.87401241  0.58968271     0.20200
C1932       C  0.39028509  0.86906050  0.63570686    -0.03400
C1933       C  0.39976081  0.87934895  0.66804992    -0.06400
C1934       C  0.40996905  0.89453735  0.65435097     0.20500
C1935       C  0.40019907  0.87357446  0.71346258     0.18700
C1936       C  0.39028782  0.85833926  0.72673856    -0.17900
C1937       C  0.38092582  0.84812770  0.69467182    -0.20100
C1938       C  0.38136578  0.85305186  0.64898167     0.20100
C1939       C  0.37423631  0.84153659  0.61602674    -0.33100
C1940       C  0.37594651  0.84579337  0.57011592     0.00800
C1941       C  0.38342148  0.86242681  0.55708236    -0.24500
C1942       C  0.42140769  0.90311740  0.68555691    -0.29000
C1943       C  0.42283972  0.89637919  0.72957290     0.06500
C1944       C  0.41170305  0.88222625  0.74397309    -0.27700
H1945       H  0.41735304  0.91157308  0.59793538     0.11200
H1946       H  0.40070530  0.89374787  0.54170561     0.12400
H1947       H  0.39044477  0.85385437  0.76159174     0.11400
H1948       H  0.37400765  0.83595434  0.70529653     0.10700
H1949       H  0.36836891  0.82869429  0.62584828     0.16100
H1950       H  0.38484717  0.86557066  0.52151514     0.12000
H1951       H  0.43033396  0.91389414  0.67466298     0.14800
H1952       H  0.41310749  0.87704281  0.77810293     0.14600
C1953       C  0.46105703  0.83026611  0.41583334    -0.18300
C1954       C  0.47583471  0.83987519  0.39877702    -0.20400
C1955       C  0.47323536  0.85422387  0.36852522     0.20200
C1956       C  0.45553928  0.85884465  0.35507416    -0.03400
C1957       C  0.44059815  0.84897739  0.37191767    -0.06400
C1958       C  0.44338972  0.83474092  0.40275437     0.20500
C1959       C  0.42288184  0.85354435  0.35848049     0.18700
C1960       C  0.42031558  0.86789297  0.32813888    -0.17900
C1961       C  0.43508645  0.87778813  0.31185159    -0.20100
C1962       C  0.45275192  0.87345603  0.32528573     0.20100
C1963       C  0.46764410  0.88354826  0.30982524    -0.33100
C1964       C  0.48533605  0.87894023  0.32289733     0.00800
C1965       C  0.48799662  0.86413727  0.35191729    -0.24500
C1966       C  0.42848134  0.82547082  0.42075110    -0.29000
C1967       C  0.41069641  0.83011711  0.40835280     0.06500
C1968       C  0.40805990  0.84398176  0.37642658    -0.27700
H1969       H  0.46344839  0.81937522  0.43949867     0.11200
H1970       H  0.48931810  0.83616973  0.40957776     0.12400
H1971       H  0.40683586  0.87162078  0.31739874     0.11400
H1972       H  0.43267530  0.88890539  0.28887160     0.10700
H1973       H  0.46549790  0.89491001  0.28739416     0.16100
H1974       H  0.50156979  0.86063031  0.36254229     0.12000
H1975       H  0.43073745  0.81479436  0.44513899     0.14800
H1976       H  0.39445881  0.84778439  0.36681607     0.14600
C1977       C  0.24141517  0.79637679  0.44549481    -0.18300
C1978       C  0.25991363  0.79610245  0.43664683    -0.20400
C1979       C  0.27196610  0.80561034  0.46451193     0.20200
C1980       C  0.26534298  0.81589065  0.50105050    -0.03400
C1981       C  0.24656836  0.81611650  0.51011266    -0.06400
C1982       C  0.23464380  0.80612049  0.48243623     0.20500
C1983       C  0.23979472  0.82588957  0.54742092     0.18700
C1984       C  0.25194962  0.83565600  0.57474910    -0.17900
C1985       C  0.27058321  0.83546887  0.56569513    -0.20100
C1986       C  0.27749682  0.82549221  0.52913558     0.20100
C1987       C  0.29628938  0.82444067  0.52080704    -0.33100
C1988       C  0.30287280  0.81357251  0.48530707     0.00800
C1989       C  0.29056301  0.80451419  0.45707027    -0.24500
C1990       C  0.21621056  0.80551838  0.49283004    -0.29000
C1991       C  0.20927396  0.81466455  0.53073323     0.06500
C1992       C  0.22111907  0.82522690  0.55736971    -0.27700
H1993       H  0.23241640  0.78867570  0.42385759     0.11200
H1994       H  0.26482649  0.78820569  0.40838981     0.12400
H1995       H  0.24707257  0.84325287  0.60355636     0.11400
H1996       H  0.27961799  0.84292721  0.58773414     0.10700
H1997       H  0.30573778  0.83131999  0.54295964     0.16100
H1998       H  0.29556428  0.79621035  0.42958216     0.12000
H1999       H  0.20725349  0.79746332  0.47184963     0.14800
H2000       H  0.21596444  0.83225662  0.58677399     0.14600
C2001       C  0.11564032  0.84985271  0.16211492    -0.18300
C2002       C  0.12536201  0.83474369  0.14725358    -0.20400
C2003       C  0.11643374  0.82001198  0.12717936     0.20200
C2004       C  0.09746700  0.82044195  0.12261264    -0.03400
C2005       C  0.08759660  0.83560805  0.13833734    -0.06400
C2006       C  0.09677146  0.85045952  0.15765416     0.20500
C2007       C  0.06857823  0.83589434  0.13477761     0.18700
C2008       C  0.05966157  0.82107641  0.11502446    -0.17900
C2009       C  0.06945237  0.80622241  0.09870664    -0.20100
C2010       C  0.08836062  0.80575360  0.10228429     0.20100
C2011       C  0.09830111  0.79090148  0.08585701    -0.33100
C2012       C  0.11725137  0.79034695  0.09017083     0.00800
C2013       C  0.12615382  0.80493630  0.11140733    -0.24500
C2014       C  0.08693879  0.86560000  0.17246332    -0.29000
C2015       C  0.06794725  0.86596574  0.16969127     0.06500
C2016       C  0.05885145  0.85093675  0.15114460    -0.27700
H2017       H  0.12289622  0.86106982  0.17722827     0.11200
H2018       H  0.13990217  0.83464158  0.15118145     0.12400
H2019       H  0.04508516  0.82101280  0.11194672     0.11400
H2020       H  0.06220379  0.79505157  0.08334966     0.10700
H2021       H  0.09125590  0.77969641  0.07001924     0.16100
H2022       H  0.14071183  0.80470321  0.11505228     0.12000
H2023       H  0.09406587  0.87694620  0.18737295     0.14800
H2024       H  0.04423562  0.85103128  0.14912073     0.14600
C2025       C  0.10549294  0.64772659  0.96979632    -0.18300
C2026       C  0.09596664  0.63751942  0.93771086    -0.20400
C2027       C  0.09846221  0.64061709  0.89135863     0.20200
C2028       C  0.11150086  0.65336868  0.87720808    -0.03400
C2029       C  0.12103254  0.66372582  0.90953317    -0.06400
C2030       C  0.11762666  0.66123934  0.95602544     0.20500
C2031       C  0.13292683  0.67751999  0.89518254     0.18700
C2032       C  0.13592369  0.68015856  0.84890378    -0.17900
C2033       C  0.12655151  0.66986625  0.81694593    -0.20100
C2034       C  0.11398562  0.65681949  0.83073221     0.20100
C2035       C  0.10281559  0.64829091  0.79904810    -0.33100
C2036       C  0.08894123  0.63675339  0.81315899     0.00800
C2037       C  0.08719057  0.63235633  0.85905591    -0.24500
C2038       C  0.12537976  0.67318377  0.98756284    -0.29000
C2039       C  0.13635590  0.68753765  0.97298084     0.06500
C2040       C  0.14057234  0.68927665  0.92712206    -0.27700
H2041       H  0.10280645  0.64557769  0.00532118     0.11200
H2042       H  0.08610244  0.62771941  0.94918008     0.12400
H2043       H  0.14502290  0.69067320  0.83739520     0.11400
H2044       H  0.12858178  0.67264806  0.78128355     0.10700
H2045       H  0.10378105  0.65194202  0.76353257     0.16100
H2046       H  0.07614065  0.62376111  0.86982733     0.12000
H2047       H  0.12184960  0.67216492  0.02298617     0.14800
H2048       H  0.14873133  0.70067343  0.91600146     0.14600
C2049       C  0.07150864  0.65055312  0.15073764    -0.18300
C2050       C  0.08703777  0.66009743  0.13868378    -0.20400
C2051       C  0.08731669  0.67903391  0.14075196     0.20200
C2052       C  0.07193344  0.68848159  0.15588556    -0.03400
C2053       C  0.05634359  0.67881801  0.16880546    -0.06400
C2054       C  0.05609413  0.65978723  0.16558933     0.20500
C2055       C  0.04096074  0.68818584  0.18435164     0.18700
C2056       C  0.04132614  0.70714237  0.18666185    -0.17900
C2057       C  0.05665916  0.71675427  0.17287089    -0.20100
C2058       C  0.07198573  0.70756256  0.15709917     0.20100
C2059       C  0.08715090  0.71706085  0.14123530    -0.33100
C2060       C  0.10235725  0.70765224  0.12526076     0.00800
C2061       C  0.10250722  0.68867010  0.12640501    -0.24500
C2062       C  0.04044974  0.65028455  0.17726634    -0.29000
C2063       C  0.02514525  0.65945471  0.19331593     0.06500
C2064       C  0.02550451  0.67841212  0.19707267    -0.27700
H2065       H  0.07153399  0.63594116  0.14829704     0.11200
H2066       H  0.09873817  0.65267453  0.12698498     0.12400
H2067       H  0.02965110  0.71455821  0.19857150     0.11400
H2068       H  0.05648032  0.73138234  0.17422110     0.10700
H2069       H  0.08699847  0.73170674  0.14040997     0.16100
H2070       H  0.11409521  0.68134157  0.11359963     0.12000
H2071       H  0.04032309  0.63566207  0.17479305     0.14800
H2072       H  0.01370529  0.68553469  0.20937202     0.14600
C2073       C  0.16210076  0.81323748  0.81036175    -0.18300
C2074       C  0.15913251  0.80754626  0.85481199    -0.20400
C2075       C  0.15693805  0.78911644  0.86464554     0.20200
C2076       C  0.15806629  0.77627123  0.82943532    -0.03400
C2077       C  0.16150589  0.78198396  0.78477005    -0.06400
C2078       C  0.16320714  0.80058842  0.77507680     0.20500
C2079       C  0.16277473  0.76911197  0.74968360     0.18700
C2080       C  0.16065250  0.75067814  0.75948504    -0.17900
C2081       C  0.15693110  0.74505306  0.80358346    -0.20100
C2082       C  0.15549075  0.75772974  0.83870977     0.20100
C2083       C  0.15146407  0.75221496  0.88288721    -0.33100
C2084       C  0.15052662  0.76490449  0.91817523     0.00800
C2085       C  0.15349377  0.78330811  0.90895193    -0.24500
C2086       C  0.16536154  0.80621548  0.73012567    -0.29000
C2087       C  0.16615147  0.79346078  0.69490304     0.06500
C2088       C  0.16542816  0.77491536  0.70513584    -0.27700
H2089       H  0.16340431  0.82757742  0.80353019     0.11200
H2090       H  0.15828946  0.81757798  0.88140525     0.12400
H2091       H  0.16153388  0.74065258  0.73292462     0.11400
H2092       H  0.15508282  0.73074610  0.81018729     0.10700
H2093       H  0.14944273  0.73795625  0.89009224     0.16100
H2094       H  0.15278987  0.79311287  0.93617169     0.12000
H2095       H  0.16590158  0.82053518  0.72237335     0.14800
H2096       H  0.16577327  0.76503075  0.67812008     0.14600
C2097       C  0.15148231  0.79785103  0.29974053    -0.18300
C2098       C  0.15518470  0.79227431  0.25556907    -0.20400
C2099       C  0.16062858  0.77445214  0.24680476     0.20200
C2100       C  0.16273068  0.76219195  0.28284085    -0.03400
C2101       C  0.15930923  0.76791254  0.32747466    -0.06400
C2102       C  0.15339792  0.78575182  0.33587480     0.20500
C2103       C  0.16150696  0.75569252  0.36357409     0.18700
C2104       C  0.16707929  0.73790841  0.35477286    -0.17900
C2105       C  0.17004683  0.73211210  0.31039831    -0.20100
C2106       C  0.16772982  0.74408299  0.27417281     0.20100
C2107       C  0.16963261  0.73813031  0.22937881    -0.33100
C2108       C  0.16710582  0.75023194  0.19349874     0.00800
C2109       C  0.16325048  0.76847475  0.20247126    -0.24500
C2110       C  0.14946853  0.79114260  0.38023408    -0.29000
C2111       C  0.15182790  0.77906695  0.41635211     0.06500
C2112       C  0.15796691  0.76142498  0.40781006    -0.27700
H2113       H  0.14703615  0.81160235  0.30562616     0.11200
H2114       H  0.15343610  0.80180521  0.22813292     0.12400
H2115       H  0.16885791  0.72838918  0.38217653     0.11400
H2116       H  0.17396466  0.71821653  0.30438310     0.10700
H2117       H  0.17259887  0.72406284  0.22233404     0.16100
H2118       H  0.16104525  0.77776603  0.17468644     0.12000
H2119       H  0.14492609  0.80483069  0.38679337     0.14800
H2120       H  0.15973942  0.75207366  0.43560267     0.14600
C2121       C  0.44124469  0.79989511  0.91119158    -0.18300
C2122       C  0.45079445  0.81509756  0.89629014    -0.20400
C2123       C  0.44298834  0.83237111  0.89844561     0.20200
C2124       C  0.42545131  0.83437444  0.91611934    -0.03400
C2125       C  0.41579317  0.81902639  0.93101718    -0.06400
C2126       C  0.42370625  0.80168236  0.92847536     0.20500
C2127       C  0.39811826  0.82102660  0.94781285     0.18700
C2128       C  0.39034757  0.83829085  0.95024998    -0.17900
C2129       C  0.39991168  0.85347511  0.93553844    -0.20100
C2130       C  0.41740612  0.85166088  0.91808953     0.20100
C2131       C  0.42675671  0.86675025  0.90140008    -0.33100
C2132       C  0.44403551  0.86481014  0.88247181     0.00800
C2133       C  0.45219967  0.84758930  0.88206644    -0.24500
C2134       C  0.41385229  0.78645292  0.94269761    -0.29000
C2135       C  0.39609898  0.78835769  0.95876066     0.06500
C2136       C  0.38841125  0.80572484  0.96138573    -0.27700
H2137       H  0.44753282  0.78670870  0.90886794     0.11200
H2138       H  0.46424935  0.81331992  0.88267460     0.12400
H2139       H  0.37678534  0.84003518  0.96318277     0.11400
H2140       H  0.39353167  0.86662707  0.93731630     0.10700
H2141       H  0.42031246  0.87989679  0.90174039     0.16100
H2142       H  0.46549320  0.84586514  0.86739692     0.12000
H2143       H  0.41983087  0.77311268  0.94033216     0.14800
H2144       H  0.37477022  0.80735894  0.97396686     0.14600
C2145       C  0.36611233  0.73037992  0.67831184    -0.18300
C2146       C  0.36472063  0.72522406  0.72365012    -0.20400
C2147       C  0.35680424  0.73687524  0.75540498     0.20200
C2148       C  0.34953696  0.75355202  0.74097160    -0.03400
C2149       C  0.35067873  0.75861070  0.69528583    -0.06400
C2150       C  0.35945320  0.74718336  0.66402904     0.20500
C2151       C  0.34364603  0.77543915  0.68125275     0.18700
C2152       C  0.33522867  0.78684754  0.71258958    -0.17900
C2153       C  0.33436280  0.78196085  0.75798868    -0.20100
C2154       C  0.34173157  0.76552453  0.77248769     0.20100
C2155       C  0.34198701  0.76117186  0.81823955    -0.33100
C2156       C  0.34972240  0.74494547  0.83299652     0.00800
C2157       C  0.35661459  0.73253172  0.80154479    -0.24500
C2158       C  0.36189262  0.75309036  0.61949404    -0.29000
C2159       C  0.35524177  0.76999133  0.60613030     0.06500
C2160       C  0.34572992  0.78087101  0.63645660    -0.27700
H2161       H  0.37270805  0.72138699  0.65460815     0.11200
H2162       H  0.37027156  0.71235052  0.73409452     0.12400
H2163       H  0.32974854  0.79975565  0.70220013     0.11400
H2164       H  0.32823249  0.79119211  0.78191466     0.10700
H2165       H  0.33644858  0.77059854  0.84266044     0.16100
H2166       H  0.36260975  0.72001592  0.81319681     0.12000
H2167       H  0.36910900  0.74474086  0.59541515     0.14800
H2168       H  0.34069093  0.79391660  0.62556546     0.14600
C2169       C  0.33441365  0.80971248  0.22298693    -0.18300
C2170       C  0.33479656  0.80495742  0.17713274    -0.20400
C2171       C  0.33924644  0.78727323  0.16393789     0.20200
C2172       C  0.34248870  0.77405428  0.19736440    -0.03400
C2173       C  0.34200610  0.77881144  0.24334818    -0.06400
C2174       C  0.33840174  0.79683664  0.25632084     0.20500
C2175       C  0.34595026  0.76565279  0.27623539     0.18700
C2176       C  0.34976631  0.74782382  0.26341667    -0.17900
C2177       C  0.35040410  0.74315056  0.21792061    -0.20100
C2178       C  0.34714500  0.75623953  0.18484138     0.20100
C2179       C  0.34945812  0.75202123  0.13947609    -0.33100
C2180       C  0.34730465  0.76528543  0.10645735     0.00800
C2181       C  0.34151683  0.78271877  0.11816859    -0.24500
C2182       C  0.33953826  0.80171389  0.30218046    -0.29000
C2183       C  0.34415221  0.78867651  0.33468807     0.06500
C2184       C  0.34676899  0.77062078  0.32141738    -0.27700
H2185       H  0.33145413  0.82356148  0.23231018     0.11200
H2186       H  0.33216112  0.81523769  0.15197766     0.12400
H2187       H  0.35276909  0.73762085  0.28853202     0.11400
H2188       H  0.35392086  0.72943145  0.20857879     0.10700
H2189       H  0.35379452  0.73857518  0.12978312     0.16100
H2190       H  0.33993036  0.79288523  0.09215698     0.12000
H2191       H  0.33731794  0.81561550  0.31233600     0.14800
H2192       H  0.35019962  0.76038527  0.34613701     0.14600
C2193       C  0.24259456  0.75579771  0.96326737    -0.18300
C2194       C  0.26093691  0.75527786  0.95314834    -0.20400
C2195       C  0.27166031  0.74095638  0.96852433     0.20200
C2196       C  0.26387136  0.72685211  0.99380486    -0.03400
C2197       C  0.24525266  0.72738607  0.00408195    -0.06400
C2198       C  0.23468952  0.74200511  0.98886619     0.20500
C2199       C  0.23729682  0.71356629  0.03017936     0.18700
C2200       C  0.24811754  0.69911564  0.04494257    -0.17900
C2201       C  0.26663866  0.69858220  0.03470407    -0.20100
C2202       C  0.27473457  0.71248912  0.00952414     0.20100
C2203       C  0.29350055  0.71264022  0.00078101    -0.33100
C2204       C  0.30135408  0.72708610  0.97677770     0.00800
C2205       C  0.29015067  0.74086851  0.95992508    -0.24500
C2206       C  0.21644236  0.74288817  0.00009824    -0.29000
C2207       C  0.20832534  0.72955083  0.02704326     0.06500
C2208       C  0.21880578  0.71471723  0.04162054    -0.27700
H2209       H  0.23461167  0.76711839  0.95143521     0.11200
H2210       H  0.26678608  0.76620360  0.93375630     0.12400
H2211       H  0.24230520  0.68832554  0.06487446     0.11400
H2212       H  0.27467969  0.68740141  0.04702391     0.10700
H2213       H  0.30200005  0.70195448  0.01390430     0.16100
H2214       H  0.29590872  0.75196632  0.94090362     0.12000
H2215       H  0.20862511  0.75436499  0.98848628     0.14800
H2216       H  0.21271599  0.70434106  0.06240863     0.14600
C2217       C  0.54989995  0.70809155  0.42207137    -0.18300
C2218       C  0.53489061  0.69874028  0.40510886    -0.20400
C2219       C  0.53715422  0.68276444  0.38010590     0.20200
C2220       C  0.55475303  0.67614776  0.37216157    -0.03400
C2221       C  0.56991397  0.68578797  0.38849982    -0.06400
C2222       C  0.56745613  0.70176950  0.41382493     0.20500
C2223       C  0.58750894  0.67938078  0.37966317     0.18700
C2224       C  0.58977032  0.66327390  0.35519459    -0.17900
C2225       C  0.57475565  0.65354508  0.33975041    -0.20100
C2226       C  0.55721369  0.65986592  0.34802440     0.20100
C2227       C  0.54209493  0.65018057  0.33266423    -0.33100
C2228       C  0.52459785  0.65686774  0.33976909     0.00800
C2229       C  0.52217000  0.67322413  0.36311293    -0.24500
C2230       C  0.58258106  0.71108504  0.43065249    -0.29000
C2231       C  0.60017347  0.70486312  0.42171859     0.06500
C2232       C  0.60251723  0.68908047  0.39582468    -0.27700
H2233       H  0.54777495  0.72032910  0.44149601     0.11200
H2234       H  0.52149634  0.70396101  0.41175225     0.12400
H2235       H  0.60316752  0.65812683  0.34823959     0.11400
H2236       H  0.57686830  0.64109910  0.32119546     0.10700
H2237       H  0.54389915  0.63756478  0.31456062     0.16100
H2238       H  0.50862243  0.67824124  0.36893584     0.12000
H2239       H  0.58066967  0.72323700  0.45059713     0.14800
H2240       H  0.61601155  0.68407186  0.38933826     0.14600
C2241       C  0.44109178  0.73161661  0.43089888    -0.18300
C2242       C  0.45044583  0.71620236  0.41698891    -0.20400
C2243       C  0.44104597  0.70039861  0.40534362     0.20200
C2244       C  0.42204699  0.69996202  0.40856637    -0.03400
C2245       C  0.41259933  0.71554332  0.42251183    -0.06400
C2246       C  0.42218644  0.73147626  0.43337797     0.20500
C2247       C  0.39358356  0.71526469  0.42490051     0.18700
C2248       C  0.38419795  0.69936155  0.41374946    -0.17900
C2249       C  0.39356765  0.68391519  0.39982035    -0.20100
C2250       C  0.41247678  0.68411327  0.39685705     0.20100
C2251       C  0.42195701  0.66897729  0.38099499    -0.33100
C2252       C  0.44083392  0.66964264  0.37590287     0.00800
C2253       C  0.45029542  0.68524527  0.38911842    -0.24500
C2254       C  0.41272462  0.74703935  0.44622887    -0.29000
C2255       C  0.39377829  0.74691763  0.44861185     0.06500
C2256       C  0.38430284  0.73093018  0.43805232    -0.27700
H2257       H  0.44864560  0.74372269  0.43928984     0.11200
H2258       H  0.46503661  0.71671990  0.41474911     0.12400
H2259       H  0.36959473  0.69891902  0.41542572     0.11400
H2260       H  0.38600681  0.67187394  0.39085030     0.10700
H2261       H  0.41455746  0.65701200  0.37055948     0.16100
H2262       H  0.46484920  0.68580113  0.38542110     0.12000
H2263       H  0.42014625  0.75925004  0.45453185     0.14800
H2264       H  0.36968772  0.73069755  0.43976027     0.14600
C2265       C  0.39511052  0.64706829  0.07887019    -0.18300
C2266       C  0.40545669  0.63643474  0.10811645    -0.20400
C2267       C  0.40710280  0.64109892  0.15390391     0.20200
C2268       C  0.39753084  0.65620929  0.17077843    -0.03400
C2269       C  0.38734722  0.66710833  0.14113247    -0.06400
C2270       C  0.38640776  0.66266352  0.09481634     0.20500
C2271       C  0.37918645  0.68311955  0.15725217     0.18700
C2272       C  0.38027221  0.68746600  0.20334796    -0.17900
C2273       C  0.39014253  0.67653557  0.23284939    -0.20100
C2274       C  0.39920765  0.66120806  0.21659615     0.20100
C2275       C  0.41104829  0.65165879  0.24451318    -0.33100
C2276       C  0.42162266  0.63755936  0.22705758     0.00800
C2277       C  0.41916940  0.63181656  0.18231358    -0.24500
C2278       C  0.37795172  0.67456833  0.06471547    -0.29000
C2279       C  0.37119862  0.69123128  0.08001391     0.06500
C2280       C  0.37122005  0.69511904  0.12652107    -0.27700
H2281       H  0.39453094  0.64350568  0.04338358     0.11200
H2282       H  0.41265861  0.62489262  0.09458552     0.12400
H2283       H  0.37402430  0.69964108  0.21628489     0.11400
H2284       H  0.39132222  0.68050080  0.26802368     0.10700
H2285       H  0.41328735  0.65622522  0.27894013     0.16100
H2286       H  0.42767987  0.62119818  0.16874412     0.12000
H2287       H  0.37819421  0.67164327  0.02881613     0.14800
H2288       H  0.36605148  0.70795927  0.13840479     0.14600
C2289       C  0.44070327  0.30413326  0.07903595    -0.18300
C2290       C  0.44997723  0.31939743  0.09488869    -0.20400
C2291       C  0.44047046  0.33444884  0.11124694     0.20200
C2292       C  0.42142189  0.33429570  0.11057066    -0.03400
C2293       C  0.41208327  0.31880073  0.09531536    -0.06400
C2294       C  0.42176296  0.30358103  0.07970972     0.20500
C2295       C  0.39306522  0.31839395  0.09676757     0.18700
C2296       C  0.38351720  0.33360565  0.11185090    -0.17900
C2297       C  0.39275338  0.34903014  0.12638650    -0.20100
C2298       C  0.41168118  0.34941327  0.12643251     0.20100
C2299       C  0.42100880  0.36439678  0.14362871    -0.33100
C2300       C  0.43993947  0.36427507  0.14657438     0.00800
C2301       C  0.44962078  0.34939753  0.12963402    -0.24500
C2302       C  0.41232422  0.28798685  0.06604130    -0.29000
C2303       C  0.39339453  0.28735482  0.06894724     0.06500
C2304       C  0.38389845  0.30267647  0.08391852    -0.27700
H2305       H  0.44835968  0.29261449  0.06706584     0.11200
H2306       H  0.46460719  0.31933277  0.09492744     0.12400
H2307       H  0.36889741  0.33349499  0.11291866     0.11400
H2308       H  0.38509709  0.36052227  0.13847379     0.10700
H2309       H  0.41347694  0.37575395  0.15702533     0.16100
H2310       H  0.46424090  0.34930414  0.13169953     0.12000
H2311       H  0.41969166  0.27619906  0.05448366     0.14800
H2312       H  0.36928151  0.30236551  0.08563979     0.14600
C2313       C  0.38177787  0.36857314  0.30928624    -0.18300
C2314       C  0.37205471  0.35919316  0.34223152    -0.20400
C2315       C  0.37562295  0.36208834  0.38824779     0.20200
C2316       C  0.38858302  0.37515775  0.40127048    -0.03400
C2317       C  0.39837634  0.38464387  0.36802786    -0.06400
C2318       C  0.39521205  0.38100894  0.32183691     0.20500
C2319       C  0.41222415  0.39676366  0.38102472     0.18700
C2320       C  0.41562271  0.39985322  0.42704730    -0.17900
C2321       C  0.40592878  0.39044203  0.45998251    -0.20100
C2322       C  0.39269549  0.37779688  0.44740862     0.20100
C2323       C  0.38449356  0.36678180  0.47988007    -0.33100
C2324       C  0.37239632  0.35313598  0.46677332     0.00800
C2325       C  0.36748512  0.35122111  0.42127565    -0.24500
C2326       C  0.40643934  0.38883005  0.28920972    -0.29000
C2327       C  0.42079654  0.40007308  0.30224572     0.06500
C2328       C  0.42329686  0.40451306  0.34788242    -0.27700
H2329       H  0.37922649  0.36563267  0.27396404     0.11200
H2330       H  0.36219620  0.34919517  0.33168714     0.12400
H2331       H  0.42621087  0.40906370  0.43754547     0.11400
H2332       H  0.40923384  0.39258472  0.49528720     0.10700
H2333       H  0.38856772  0.36783604  0.51502952     0.16100
H2334       H  0.35855314  0.34028080  0.41129856     0.12000
H2335       H  0.40496252  0.38503551  0.25396008     0.14800
H2336       H  0.43477472  0.41273100  0.35776425     0.14600
C2337       C  0.49871048  0.50594599  0.27720256    -0.18300
C2338       C  0.49890566  0.52444901  0.28623365    -0.20400
C2339       C  0.48300379  0.53459396  0.28266635     0.20200
C2340       C  0.46666213  0.52603676  0.27053428    -0.03400
C2341       C  0.46651907  0.50735891  0.26076003    -0.06400
C2342       C  0.48263596  0.49735359  0.26418038     0.20500
C2343       C  0.45034648  0.49874688  0.24723535     0.18700
C2344       C  0.43438613  0.50892378  0.24462916    -0.17900
C2345       C  0.43446311  0.52742938  0.25508411    -0.20100
C2346       C  0.45055056  0.53616650  0.26775043     0.20100
C2347       C  0.45094564  0.55485718  0.27699663    -0.33100
C2348       C  0.46738420  0.56346451  0.28734580     0.00800
C2349       C  0.48326162  0.55320538  0.29050143    -0.24500
C2350       C  0.48250270  0.47891617  0.25433425    -0.29000
C2351       C  0.46655823  0.47015095  0.24044727     0.06500
C2352       C  0.45049372  0.48016329  0.23660992    -0.27700
H2353       H  0.51117251  0.49838003  0.28002424     0.11200
H2354       H  0.51151663  0.53084600  0.29577717     0.12400
H2355       H  0.42182393  0.50256684  0.23450162     0.11400
H2356       H  0.42196331  0.53495894  0.25274827     0.10700
H2357       H  0.43866627  0.56277160  0.27481691     0.16100
H2358       H  0.49588187  0.55976272  0.29939274     0.12000
H2359       H  0.49502389  0.47141316  0.25686274     0.14800
H2360       H  0.43816424  0.47349098  0.22589476     0.14600
C2361       C  0.62215389  0.69959958  0.92072100    -0.18300
C2362       C  0.61227823  0.68409095  0.90993424    -0.20400
C2363       C  0.59368805  0.68520786  0.90146518     0.20200
C2364       C  0.58490077  0.70209247  0.90430252    -0.03400
C2365       C  0.59487726  0.71776469  0.91528452    -0.06400
C2366       C  0.61359064  0.71646374  0.92331148     0.20500
C2367       C  0.58618098  0.73471166  0.91790839     0.18700
C2368       C  0.56755530  0.73578632  0.90944789    -0.17900
C2369       C  0.55768100  0.72025557  0.89816802    -0.20100
C2370       C  0.56624344  0.70336921  0.89533455     0.20100
C2371       C  0.55663474  0.68785406  0.88222319    -0.33100
C2372       C  0.56547708  0.67110263  0.87771063     0.00800
C2373       C  0.58389640  0.66982649  0.88866906    -0.24500
C2374       C  0.62346384  0.73200716  0.93403167    -0.29000
C2375       C  0.61495312  0.74893809  0.93742816     0.06500
C2376       C  0.59627039  0.75021449  0.92911550    -0.27700
H2377       H  0.63652546  0.69841128  0.92689880     0.11200
H2378       H  0.61922482  0.67124098  0.90774335     0.12400
H2379       H  0.56063809  0.74866260  0.91130364     0.11400
H2380       H  0.54335871  0.72147677  0.89130260     0.10700
H2381       H  0.54243434  0.68898572  0.87374364     0.16100
H2382       H  0.59087563  0.65703844  0.88495447     0.12000
H2383       H  0.63781986  0.73081300  0.94052655     0.14800
H2384       H  0.58957642  0.76320135  0.93169118     0.14600
C2385       C  0.62715968  0.69144097  0.70200736    -0.18300
C2386       C  0.61769097  0.68058474  0.73253299    -0.20400
C2387       C  0.60894380  0.66480444  0.71765573     0.20200
C2388       C  0.61054551  0.65935487  0.67215110    -0.03400
C2389       C  0.62024791  0.67024715  0.64141295    -0.06400
C2390       C  0.62812450  0.68664094  0.65618249     0.20500
C2391       C  0.62109957  0.66529801  0.59541308     0.18700
C2392       C  0.61273828  0.64926488  0.58083626    -0.17900
C2393       C  0.60293499  0.63860058  0.61116340    -0.20100
C2394       C  0.60144215  0.64368960  0.65669083     0.20100
C2395       C  0.58999380  0.63418146  0.68620578    -0.33100
C2396       C  0.58749368  0.64032208  0.73059754     0.00800
C2397       C  0.59753831  0.65514900  0.74661920    -0.24500
C2398       C  0.63584499  0.69842900  0.62445753    -0.29000
C2399       C  0.63599413  0.69392066  0.57829713     0.06500
C2400       C  0.62930235  0.67700148  0.56432075    -0.27700
H2401       H  0.63323198  0.70390757  0.71398393     0.11200
H2402       H  0.61661959  0.68489889  0.76742713     0.12400
H2403       H  0.61324556  0.64529707  0.54562234     0.11400
H2404       H  0.59605741  0.62664801  0.59868127     0.10700
H2405       H  0.58189290  0.62301900  0.67365169     0.16100
H2406       H  0.59529665  0.66003649  0.78074473     0.12000
H2407       H  0.64096977  0.71147888  0.63532594     0.14800
H2408       H  0.62915176  0.67358003  0.52869210     0.14600
C2409       C  0.44594969  0.67186069  0.97018049    -0.18300
C2410       C  0.46042194  0.66204876  0.95230415    -0.20400
C2411       C  0.46495015  0.66355037  0.90642522     0.20200
C2412       C  0.45476675  0.67503814  0.87821616    -0.03400
C2413       C  0.43993626  0.68469126  0.89607872    -0.06400
C2414       C  0.43563516  0.68323443  0.94239612     0.20500
C2415       C  0.42942147  0.69578452  0.86758538     0.18700
C2416       C  0.43400712  0.69735064  0.82177223    -0.17900
C2417       C  0.44894142  0.68811082  0.80431829    -0.20100
C2418       C  0.45941359  0.67691814  0.83219346     0.20100
C2419       C  0.47439637  0.66753550  0.81489637    -0.33100
C2420       C  0.48439431  0.65584519  0.84268548     0.00800
C2421       C  0.47950640  0.65382811  0.88830685    -0.24500
C2422       C  0.42107440  0.69313692  0.95999517    -0.29000
C2423       C  0.41039842  0.70397205  0.93157548     0.06500
C2424       C  0.41452123  0.70510427  0.88538656    -0.27700
H2425       H  0.44280226  0.67052386  0.00576561     0.11200
H2426       H  0.46818863  0.65343287  0.97451240     0.12400
H2427       H  0.42609894  0.70582158  0.79946547     0.11400
H2428       H  0.45225407  0.68965830  0.76888328     0.10700
H2429       H  0.47804225  0.66898889  0.77960915     0.16100
H2430       H  0.48726794  0.64491801  0.90990383     0.12000
H2431       H  0.41772817  0.69207155  0.99556513     0.14800
H2432       H  0.40627689  0.71346902  0.86353147     0.14600
C2433       C  0.54022264  0.60801373  0.10616634    -0.18300
C2434       C  0.54545421  0.60483620  0.06142840    -0.20400
C2435       C  0.53305519  0.60700346  0.02595139     0.20200
C2436       C  0.51515275  0.61225522  0.03572411    -0.03400
C2437       C  0.51003274  0.61596987  0.08060617    -0.06400
C2438       C  0.52260063  0.61373709  0.11604219     0.20500
C2439       C  0.49235828  0.62202307  0.08993128     0.18700
C2440       C  0.47983992  0.62383891  0.05464826    -0.17900
C2441       C  0.48478440  0.61970637  0.01033926    -0.20100
C2442       C  0.50242088  0.61409736  0.00056048     0.20100
C2443       C  0.50767295  0.61085871  0.95600241    -0.33100
C2444       C  0.52567700  0.60663171  0.94576572     0.00800
C2445       C  0.53830693  0.60452770  0.98080117    -0.24500
C2446       C  0.51729230  0.61726534  0.16065850    -0.29000
C2447       C  0.49975634  0.62347487  0.16994155     0.06500
C2448       C  0.48744264  0.62599792  0.13442381    -0.27700
H2449       H  0.55001737  0.60621599  0.13297810     0.11200
H2450       H  0.55922125  0.60073622  0.05456312     0.12400
H2451       H  0.46619784  0.62837624  0.06134672     0.11400
H2452       H  0.47488312  0.62110009  0.98360929     0.10700
H2453       H  0.49798341  0.61276847  0.92893906     0.16100
H2454       H  0.55222581  0.60134474  0.97280230     0.12000
H2455       H  0.52680726  0.61534095  0.18807950     0.14800
H2456       H  0.47382984  0.63054946  0.14160251     0.14600
C2457       C  0.46268437  0.61318855  0.55954021    -0.18300
C2458       C  0.46803167  0.61589699  0.60436961    -0.20400
C2459       C  0.48633574  0.61820897  0.61519053     0.20200
C2460       C  0.49938953  0.61794410  0.58049646    -0.03400
C2461       C  0.49403409  0.61487026  0.53545803    -0.06400
C2462       C  0.47557631  0.61253203  0.52493388     0.20500
C2463       C  0.50713442  0.61426112  0.50096497     0.18700
C2464       C  0.52539065  0.61708888  0.51152942    -0.17900
C2465       C  0.53067708  0.62037321  0.55612209    -0.20100
C2466       C  0.51779822  0.62073105  0.59079394     0.20100
C2467       C  0.52300036  0.62373812  0.63563253    -0.33100
C2468       C  0.51011126  0.62355093  0.67036821     0.00800
C2469       C  0.49182842  0.62075456  0.66007714    -0.24500
C2470       C  0.47033248  0.60986185  0.47991603    -0.29000
C2471       C  0.48334669  0.60919436  0.44554163     0.06500
C2472       C  0.50172343  0.61117769  0.45636090    -0.27700
H2473       H  0.44845795  0.61151500  0.55196083     0.11200
H2474       H  0.45785452  0.61620754  0.63056620     0.12400
H2475       H  0.53556110  0.61681967  0.48529990     0.11400
H2476       H  0.54485335  0.62253327  0.56353702     0.10700
H2477       H  0.53714226  0.62584377  0.64370301     0.16100
H2478       H  0.48189948  0.62082720  0.68691834     0.12000
H2479       H  0.45613111  0.60856526  0.47151074     0.14800
H2480       H  0.51176780  0.61114722  0.42978040     0.14600
C2481       C  0.44795527  0.32501265  0.68455307    -0.18300
C2482       C  0.46373037  0.33376834  0.69871126    -0.20400
C2483       C  0.46570471  0.35247958  0.69295421     0.20200
C2484       C  0.45136622  0.36257047  0.67416476    -0.03400
C2485       C  0.43534023  0.35377596  0.66049918    -0.06400
C2486       C  0.43382231  0.33484830  0.66480955     0.20500
C2487       C  0.42113014  0.36382060  0.64099477     0.18700
C2488       C  0.42292067  0.38260610  0.63624286    -0.17900
C2489       C  0.43886700  0.39129838  0.64942943    -0.20100
C2490       C  0.45323626  0.38135555  0.66777671     0.20100
C2491       C  0.46958017  0.38980262  0.67890917    -0.33100
C2492       C  0.48407934  0.37978092  0.69674854     0.00800
C2493       C  0.48190933  0.36119275  0.70460491    -0.24500
C2494       C  0.41853982  0.32600325  0.64759997    -0.29000
C2495       C  0.40466777  0.33584149  0.62660167     0.06500
C2496       C  0.40574332  0.35479954  0.62478361    -0.27700
H2497       H  0.44693976  0.31048098  0.68830912     0.11200
H2498       H  0.47455793  0.32583420  0.71324240     0.12400
H2499       H  0.41215374  0.39051590  0.62136443     0.11400
H2500       H  0.44007588  0.40576253  0.64457633     0.10700
H2501       H  0.47103049  0.40422061  0.67349117     0.16100
H2502       H  0.49298535  0.35343462  0.71861700     0.12000
H2503       H  0.41769643  0.31137978  0.64914059     0.14800
H2504       H  0.39515126  0.36240927  0.60817495     0.14600
C2505       C  0.48389285  0.42371488  0.51329100    -0.18300
C2506       C  0.47792046  0.42000605  0.46941620    -0.20400
C2507       C  0.49039460  0.41744423  0.43439798     0.20200
C2508       C  0.50906510  0.41898816  0.44344294    -0.03400
C2509       C  0.51509215  0.42240745  0.48784726    -0.06400
C2510       C  0.50242512  0.42467560  0.52291386     0.20500
C2511       C  0.53377356  0.42300366  0.49736838     0.18700
C2512       C  0.54622911  0.42097655  0.46206530    -0.17900
C2513       C  0.54024875  0.41801675  0.41781489    -0.20100
C2514       C  0.52172424  0.41677733  0.40830229     0.20100
C2515       C  0.51563173  0.41320908  0.36436085    -0.33100
C2516       C  0.49710928  0.41126540  0.35546714     0.00800
C2517       C  0.48454701  0.41329708  0.39053571    -0.24500
C2518       C  0.50849101  0.42706501  0.56732191    -0.29000
C2519       C  0.52703181  0.42653265  0.57745628     0.06500
C2520       C  0.53963008  0.42491400  0.54222731    -0.27700
H2521       H  0.47401676  0.42542312  0.53991380     0.11200
H2522       H  0.46355901  0.41900064  0.46294454     0.12400
H2523       H  0.56061374  0.42147577  0.46876118     0.11400
H2524       H  0.55011339  0.41638249  0.39116877     0.10700
H2525       H  0.52528763  0.41163725  0.33716442     0.16100
H2526       H  0.47024082  0.41205503  0.38340794     0.12000
H2527       H  0.49870413  0.42814734  0.59437746     0.14800
H2528       H  0.55394971  0.42456025  0.54990464     0.14600
C2529       C  0.47077055  0.42467027  0.91781336    -0.18300
C2530       C  0.46486453  0.42696107  0.96231063    -0.20400
C2531       C  0.47701216  0.42527024  0.99846958     0.20200
C2532       C  0.49533021  0.42132519  0.98968636    -0.03400
C2533       C  0.50119810  0.41862315  0.94490646    -0.06400
C2534       C  0.48885819  0.42038598  0.90880545     0.20500
C2535       C  0.51934831  0.41395026  0.93633049     0.18700
C2536       C  0.53154637  0.41239034  0.97242442    -0.17900
C2537       C  0.52579538  0.41536391  0.01675954    -0.20100
C2538       C  0.50772896  0.41975998  0.02568844     0.20100
C2539       C  0.50175063  0.42217155  0.07008026    -0.33100
C2540       C  0.48343658  0.42550391  0.07914269     0.00800
C2541       C  0.47112008  0.42708276  0.04327459    -0.24500
C2542       C  0.49477743  0.41762183  0.86439388    -0.29000
C2543       C  0.51273055  0.41261679  0.85577287     0.06500
C2544       C  0.52494716  0.41079511  0.89184585    -0.27700
H2545       H  0.46113485  0.42603485  0.89045286     0.11200
H2546       H  0.45078209  0.43000868  0.96845056     0.12400
H2547       H  0.54551524  0.40883868  0.96636793     0.11400
H2548       H  0.53543969  0.41401734  0.04414232     0.10700
H2549       H  0.51121420  0.42056455  0.09780460     0.16100
H2550       H  0.45697701  0.42952822  0.05031774     0.12000
H2551       H  0.48532077  0.41895070  0.83660025     0.14800
H2552       H  0.53885100  0.40710101  0.88522036     0.14600
C2553       C  0.57571322  0.52817266  0.75021983    -0.18300
C2554       C  0.57599261  0.50966312  0.73955187    -0.20400
C2555       C  0.56011714  0.49927633  0.74137335     0.20200
C2556       C  0.54377412  0.50779159  0.75372847    -0.03400
C2557       C  0.54344231  0.52647759  0.76384231    -0.06400
C2558       C  0.55951460  0.53675016  0.76242493     0.20500
C2559       C  0.52698459  0.53485977  0.77539408     0.18700
C2560       C  0.51109054  0.52458397  0.77741257    -0.17900
C2561       C  0.51145653  0.50611116  0.76793997    -0.20100
C2562       C  0.52770777  0.49764414  0.75610730     0.20100
C2563       C  0.52809227  0.47914656  0.74696317    -0.33100
C2564       C  0.54426950  0.47033748  0.73514934     0.00800
C2565       C  0.56025261  0.48055647  0.73160271    -0.24500
C2566       C  0.55900708  0.55538405  0.77288546    -0.29000
C2567       C  0.54249682  0.56383067  0.78322416     0.06500
C2568       C  0.52662465  0.55340220  0.78454113    -0.27700
H2569       H  0.58818868  0.53580710  0.74874735     0.11200
H2570       H  0.58867864  0.50344093  0.73017515     0.12400
H2571       H  0.49836671  0.53083785  0.78635998     0.11400
H2572       H  0.49901222  0.49843741  0.76986303     0.10700
H2573       H  0.51558186  0.47156868  0.74894058     0.16100
H2574       H  0.57274438  0.47392870  0.72223471     0.12000
H2575       H  0.57128448  0.56336241  0.77192801     0.14800
H2576       H  0.51390475  0.55975518  0.79324213     0.14600
C2577       C  0.56996218  0.23379628  0.09937957    -0.18300
C2578       C  0.56041744  0.21830356  0.11211562    -0.20400
C2579       C  0.56965413  0.20275456  0.12623510     0.20200
C2580       C  0.58870769  0.20275875  0.12717189    -0.03400
C2581       C  0.59832761  0.21849369  0.11509430    -0.06400
C2582       C  0.58889415  0.23406255  0.10103347     0.20500
C2583       C  0.61736046  0.21868292  0.11745395     0.18700
C2584       C  0.62660650  0.20306531  0.13104103    -0.17900
C2585       C  0.61708101  0.18741021  0.14254259    -0.20100
C2586       C  0.59815046  0.18715620  0.14096497     0.20100
C2587       C  0.58850027  0.17175388  0.15423379    -0.33100
C2588       C  0.56952897  0.17190396  0.15513273     0.00800
C2589       C  0.56018865  0.18737117  0.14055126    -0.24500
C2590       C  0.59855211  0.24961628  0.08890332    -0.29000
C2591       C  0.61750746  0.24993213  0.09139875     0.06500
C2592       C  0.62681341  0.23445735  0.10605141    -0.27700
H2593       H  0.56252451  0.24563812  0.08863196     0.11200
H2594       H  0.54579370  0.21851359  0.11114168     0.12400
H2595       H  0.64120881  0.20296926  0.13287514     0.11400
H2596       H  0.62452018  0.17556071  0.15320841     0.10700
H2597       H  0.59577051  0.15997353  0.16610420     0.16100
H2598       H  0.54554983  0.18756088  0.14131133     0.12000
H2599       H  0.59130572  0.26152560  0.07770526     0.14800
H2600       H  0.64143062  0.23455830  0.10759193     0.14600
C2601       C  0.62699905  0.36582264  0.80961252    -0.18300
C2602       C  0.63648292  0.35636075  0.84296289    -0.20400
C2603       C  0.63290860  0.35944550  0.88888211     0.20200
C2604       C  0.62030991  0.37288989  0.90136014    -0.03400
C2605       C  0.61080546  0.38250237  0.86771565    -0.06400
C2606       C  0.61382023  0.37857246  0.82164202     0.20500
C2607       C  0.59734457  0.39506314  0.88025318     0.18700
C2608       C  0.59410001  0.39849806  0.92614756    -0.17900
C2609       C  0.60346322  0.38893884  0.95944551    -0.20100
C2610       C  0.61624568  0.37581800  0.94738250     0.20100
C2611       C  0.62406886  0.36470693  0.98029749    -0.33100
C2612       C  0.63582142  0.35072688  0.96779784     0.00800
C2613       C  0.64069916  0.34849119  0.92236914    -0.24500
C2614       C  0.60267623  0.38644305  0.78870982    -0.29000
C2615       C  0.58863967  0.39813074  0.80138971     0.06500
C2616       C  0.58643962  0.40291885  0.84686551    -0.27700
H2617       H  0.62950727  0.36269538  0.77441632     0.11200
H2618       H  0.64612718  0.34612282  0.83279446     0.12400
H2619       H  0.58382446  0.40808249  0.93629470     0.11400
H2620       H  0.60023492  0.39135087  0.99464184     0.10700
H2621       H  0.62006892  0.36608273  0.01538461     0.16100
H2622       H  0.64943377  0.33735499  0.91284624     0.12000
H2623       H  0.60397947  0.38241970  0.75360543     0.14800
H2624       H  0.57524373  0.41152379  0.85652438     0.14600
C2625       C  0.54216244  0.33115011  0.19008991    -0.18300
C2626       C  0.55792955  0.32230072  0.17645062    -0.20400
C2627       C  0.57277658  0.33221762  0.16053789     0.20200
C2628       C  0.57189525  0.35125166  0.15924454    -0.03400
C2629       C  0.55593132  0.36014754  0.17241833    -0.06400
C2630       C  0.54093599  0.35004759  0.18767201     0.20500
C2631       C  0.55485740  0.37912419  0.16934336     0.18700
C2632       C  0.56982146  0.38909250  0.15447981    -0.17900
C2633       C  0.58567705  0.38028968  0.14173000    -0.20100
C2634       C  0.58677240  0.36138880  0.14351481     0.20100
C2635       C  0.60223963  0.35243862  0.12824772    -0.33100
C2636       C  0.60286332  0.33348151  0.12739203     0.00800
C2637       C  0.58824596  0.32344437  0.14441733    -0.24500
C2638       C  0.52491325  0.35901788  0.19942265    -0.29000
C2639       C  0.52366466  0.37787738  0.19509288     0.06500
C2640       C  0.53874560  0.38781651  0.18046884    -0.27700
H2641       H  0.53081679  0.32319125  0.20180136     0.11200
H2642       H  0.55842541  0.30767288  0.17777961     0.12400
H2643       H  0.56918177  0.40369238  0.15216449     0.11400
H2644       H  0.59697100  0.38824370  0.12969904     0.10700
H2645       H  0.61338350  0.36021785  0.11465976     0.16100
H2646       H  0.58870393  0.30879260  0.14383203     0.12000
H2647       H  0.51332908  0.35133303  0.21089282     0.14800
H2648       H  0.53796455  0.40241140  0.17779994     0.14600
C2649       C  0.74752628  0.34076121  0.02411585    -0.18300
C2650       C  0.76628907  0.34032854  0.01729126    -0.20400
C2651       C  0.77537043  0.32376981  0.01229546     0.20200
C2652       C  0.76533218  0.30754047  0.01335760    -0.03400
C2653       C  0.74643677  0.30800036  0.01927515    -0.06400
C2654       C  0.73744156  0.32465496  0.02539847     0.20500
C2655       C  0.73659311  0.29169164  0.01960021     0.18700
C2656       C  0.74551103  0.27515138  0.01406592    -0.17900
C2657       C  0.76418021  0.27467750  0.00892072    -0.20100
C2658       C  0.77417690  0.29075442  0.00887133     0.20100
C2659       C  0.79290145  0.29022085  0.00460379    -0.33100
C2660       C  0.80307680  0.30620015  0.00361439     0.00800
C2661       C  0.79426267  0.32302473  0.00661923    -0.24500
C2662       C  0.71861438  0.32477124  0.03303765    -0.29000
C2663       C  0.70882531  0.30841442  0.03326863     0.06500
C2664       C  0.71798976  0.29205594  0.02605404    -0.27700
H2665       H  0.74091144  0.35369491  0.02846843     0.11200
H2666       H  0.77372763  0.35294249  0.01648570     0.12400
H2667       H  0.73805082  0.26253225  0.01421953     0.11400
H2668       H  0.77081305  0.26172727  0.00518314     0.10700
H2669       H  0.79958514  0.27726180  0.00114060     0.16100
H2670       H  0.80210011  0.33539584  0.00537103     0.12000
H2671       H  0.71163277  0.33743994  0.03860266     0.14800
H2672       H  0.71066397  0.27935075  0.02679307     0.14600
C2673       C  0.92997412  0.21502210  0.99177533    -0.18300
C2674       C  0.93848606  0.19938959  0.97562524    -0.20400
C2675       C  0.93523352  0.19320595  0.93146374     0.20200
C2676       C  0.92338818  0.20302004  0.90319419    -0.03400
C2677       C  0.91454276  0.21855899  0.91975422    -0.06400
C2678       C  0.91785679  0.22460971  0.96427807     0.20500
C2679       C  0.90220562  0.22789421  0.89189114     0.18700
C2680       C  0.89923109  0.22200820  0.84741685    -0.17900
C2681       C  0.90827605  0.20686048  0.83071750    -0.20100
C2682       C  0.92025112  0.19723767  0.85841410     0.20100
C2683       C  0.92910655  0.18190411  0.84205869    -0.33100
C2684       C  0.94070480  0.17192969  0.87003665     0.00800
C2685       C  0.94361515  0.17746282  0.91489698    -0.24500
C2686       C  0.90871864  0.23991116  0.98069669    -0.29000
C2687       C  0.89590706  0.24878775  0.95357518     0.06500
C2688       C  0.89283932  0.24279014  0.90916029    -0.27700
H2689       H  0.93268492  0.21947741  0.02601428     0.11200
H2690       H  0.94761653  0.19212863  0.99770464     0.12400
H2691       H  0.88985461  0.22908519  0.82559909     0.11400
H2692       H  0.90575428  0.20254652  0.79624511     0.10700
H2693       H  0.92680066  0.17752479  0.80749533     0.16100
H2694       H  0.95271050  0.16982013  0.93628982     0.12000
H2695       H  0.91106361  0.24451203  0.01500864     0.14800
H2696       H  0.88311819  0.24975721  0.88800426     0.14600
C2697       C  0.92018894  0.39738488  0.09387471    -0.18300
C2698       C  0.91069993  0.38657267  0.06329050    -0.20400
C2699       C  0.89629285  0.37582396  0.07815363     0.20200
C2700       C  0.89059507  0.37674807  0.12357090    -0.03400
C2701       C  0.90012674  0.38770956  0.15438518    -0.06400
C2702       C  0.91535048  0.39759552  0.13963680     0.20500
C2703       C  0.89544201  0.38749290  0.20060819     0.18700
C2704       C  0.88059202  0.37723860  0.21505250    -0.17900
C2705       C  0.87113085  0.36634002  0.18444441    -0.20100
C2706       C  0.87638139  0.36557034  0.13897757     0.20100
C2707       C  0.86869665  0.35283325  0.10948252    -0.33100
C2708       C  0.87528840  0.35118561  0.06538953     0.00800
C2709       C  0.88847061  0.36310074  0.04931071    -0.24500
C2710       C  0.92644668  0.40609343  0.17148499    -0.29000
C2711       C  0.92263115  0.40454932  0.21757204     0.06500
C2712       C  0.90670946  0.39612091  0.23199871    -0.27700
H2713       H  0.93181152  0.40492808  0.08214196     0.11200
H2714       H  0.91514455  0.38598879  0.02844337     0.12400
H2715       H  0.87682576  0.37698709  0.25040979     0.11400
H2716       H  0.86022625  0.35791925  0.19672615     0.10700
H2717       H  0.85873262  0.34328687  0.12172405     0.16100
H2718       H  0.89361961  0.36146356  0.01529032     0.12000
H2719       H  0.93900071  0.41231581  0.16089713     0.14800
H2720       H  0.90415383  0.39464292  0.26788482     0.14600
C2721       C  0.94059036  0.38793346  0.89170564    -0.18300
C2722       C  0.92549069  0.37830556  0.90653697    -0.20400
C2723       C  0.92503306  0.35939102  0.90332250     0.20200
C2724       C  0.93983387  0.35005641  0.88459415    -0.03400
C2725       C  0.95495805  0.35982161  0.86880508    -0.06400
C2726       C  0.95538215  0.37882633  0.87287277     0.20500
C2727       C  0.96969801  0.35057697  0.84941653     0.18700
C2728       C  0.96917908  0.33163632  0.84622151    -0.17900
C2729       C  0.95434635  0.32192381  0.86278578    -0.20100
C2730       C  0.93963712  0.33098338  0.88228195     0.20100
C2731       C  0.92489993  0.32136542  0.90028235    -0.33100
C2732       C  0.91015923  0.33066386  0.91914802     0.00800
C2733       C  0.91018426  0.34966401  0.91950268    -0.24500
C2734       C  0.97058902  0.38842109  0.85816614    -0.29000
C2735       C  0.98531301  0.37937903  0.83847452     0.06500
C2736       C  0.98471162  0.36043342  0.83391063    -0.27700
H2737       H  0.94070198  0.40252386  0.89499658     0.11200
H2738       H  0.91426105  0.38564053  0.92107933     0.12400
H2739       H  0.98035665  0.32430668  0.83139527     0.11400
H2740       H  0.95441401  0.30730495  0.86049691     0.10700
H2741       H  0.92491945  0.30670868  0.89985769     0.16100
H2742       H  0.89893002  0.35691248  0.93420238     0.12000
H2743       H  0.97085083  0.40301437  0.86155072     0.14800
H2744       H  0.99602166  0.35335205  0.81891543     0.14600
C2745       C  0.68727858  0.25960312  0.27181559    -0.18300
C2746       C  0.68580344  0.25354560  0.31645311    -0.20400
C2747       C  0.67438253  0.26242545  0.34707327     0.20200
C2748       C  0.66472314  0.27786293  0.33285359    -0.03400
C2749       C  0.66645177  0.28413758  0.28809870    -0.06400
C2750       C  0.67750428  0.27474976  0.25716613     0.20500
C2751       C  0.65660668  0.29942569  0.27392364     0.18700
C2752       C  0.64535350  0.30846181  0.30458846    -0.17900
C2753       C  0.64340895  0.30207839  0.34867696    -0.20100
C2754       C  0.65285410  0.28669231  0.36290469     0.20100
C2755       C  0.65022912  0.27967446  0.40623644    -0.33100
C2756       C  0.65960468  0.26423347  0.42028083     0.00800
C2757       C  0.67196895  0.25584894  0.39116884    -0.24500
C2758       C  0.67801613  0.28026463  0.21180670    -0.29000
C2759       C  0.66773238  0.29513346  0.19720976     0.06500
C2760       C  0.65754701  0.30497594  0.22885017    -0.27700
H2761       H  0.69586634  0.25226514  0.24854277     0.11200
H2762       H  0.69329624  0.24168731  0.32675513     0.12400
H2763       H  0.63770950  0.32021230  0.29414959     0.11400
H2764       H  0.63432129  0.30902710  0.37146322     0.10700
H2765       H  0.64068948  0.28604738  0.42898789     0.16100
H2766       H  0.67900635  0.24379130  0.40214550     0.12000
H2767       H  0.68593194  0.27263470  0.18761923     0.14800
H2768       H  0.64948416  0.31637835  0.21791709     0.14600
C2769       C  0.66520492  0.23515899  0.85567248    -0.18300
C2770       C  0.66684807  0.22979369  0.81041587    -0.20400
C2771       C  0.66009634  0.24074603  0.77558012     0.20200
C2772       C  0.65125172  0.25706308  0.78659459    -0.03400
C2773       C  0.64941353  0.26234772  0.83208963    -0.06400
C2774       C  0.65665309  0.25149673  0.86685944     0.20500
C2775       C  0.64055845  0.27867206  0.84265625     0.18700
C2776       C  0.63343373  0.28945636  0.80811501    -0.17900
C2777       C  0.63539588  0.28431351  0.76310762    -0.20100
C2778       C  0.64442025  0.26827174  0.75210611     0.20100
C2779       C  0.64683371  0.26338425  0.70706961    -0.33100
C2780       C  0.65580304  0.24731937  0.69559192     0.00800
C2781       C  0.66216961  0.23585270  0.72994966    -0.24500
C2782       C  0.65536049  0.25733156  0.91199589    -0.29000
C2783       C  0.64672059  0.27374866  0.92242507     0.06500
C2784       C  0.63918959  0.28415725  0.88753834    -0.27700
H2785       H  0.67073913  0.22659555  0.88189816     0.11200
H2786       H  0.67360753  0.21718912  0.80263170     0.12400
H2787       H  0.62655454  0.30200289  0.81588958     0.11400
H2788       H  0.62999034  0.29295973  0.73687419     0.10700
H2789       H  0.64153720  0.27210330  0.68079749     0.16100
H2790       H  0.66895072  0.22335414  0.72118833     0.12000
H2791       H  0.66105860  0.24916988  0.93882441     0.14800
H2792       H  0.63251744  0.29684358  0.89515590     0.14600
C2793       C  0.59166326  0.13940067  0.43267834    -0.18300
C2794       C  0.60203329  0.14911726  0.46393118    -0.20400
C2795       C  0.61590881  0.16060059  0.44916279     0.20200
C2796       C  0.61999890  0.16164095  0.40267638    -0.03400
C2797       C  0.60978395  0.15157613  0.37126670    -0.06400
C2798       C  0.59518309  0.14084498  0.38625843     0.20500
C2799       C  0.61330571  0.15335086  0.32461190     0.18700
C2800       C  0.62738836  0.16455348  0.30990521    -0.17900
C2801       C  0.63729436  0.17477024  0.34098391    -0.20100
C2802       C  0.63339076  0.17375543  0.38723065     0.20100
C2803       C  0.64167706  0.18558984  0.41785687    -0.33100
C2804       C  0.63697967  0.18516015  0.46364206     0.00800
C2805       C  0.62480937  0.17209299  0.47955482    -0.24500
C2806       C  0.58358533  0.13291402  0.35438071    -0.29000
C2807       C  0.58657785  0.13555751  0.30811661     0.06500
C2808       C  0.60178314  0.14507924  0.29334024    -0.27700
H2809       H  0.58052378  0.13121680  0.44469943     0.11200
H2810       H  0.59870436  0.14823840  0.49951634     0.12400
H2811       H  0.63021584  0.16602713  0.27419136     0.11400
H2812       H  0.64758294  0.18393380  0.32870803     0.10700
H2813       H  0.65092116  0.19587173  0.40580458     0.16100
H2814       H  0.62091683  0.17213743  0.51490531     0.12000
H2815       H  0.57150907  0.12589319  0.36541246     0.14800
H2816       H  0.60365418  0.14743875  0.25747968     0.14600
C2817       C  0.56785704  0.17411471  0.73274264    -0.18300
C2818       C  0.58299784  0.18310307  0.71546789    -0.20400
C2819       C  0.58313370  0.18935062  0.67070400     0.20200
C2820       C  0.56774964  0.18664098  0.64323476    -0.03400
C2821       C  0.55255352  0.17738458  0.66047196    -0.06400
C2822       C  0.55261489  0.17108532  0.70548219     0.20500
C2823       C  0.53742186  0.17419040  0.63242999     0.18700
C2824       C  0.53740061  0.18068899  0.58794609    -0.17900
C2825       C  0.55234594  0.19005254  0.57109516    -0.20100
C2826       C  0.56763218  0.19293140  0.59830498     0.20100
C2827       C  0.58290092  0.20171934  0.58104265    -0.33100
C2828       C  0.59849904  0.20414779  0.60774225     0.00800
C2829       C  0.59844315  0.19802170  0.65274275    -0.24500
C2830       C  0.53754432  0.16165000  0.72211128    -0.29000
C2831       C  0.52270681  0.15809880  0.69387326     0.06500
C2832       C  0.52269071  0.16435255  0.64918093    -0.27700
H2833       H  0.56814651  0.16935961  0.76733109     0.11200
H2834       H  0.59465090  0.18508664  0.73708598     0.12400
H2835       H  0.52587017  0.17842560  0.56608262     0.11400
H2836       H  0.55204238  0.19483698  0.53653056     0.10700
H2837       H  0.58274586  0.20631355  0.54629691     0.16100
H2838       H  0.61033507  0.19986108  0.67363887     0.12000
H2839       H  0.53752110  0.15663539  0.75650856     0.14800
H2840       H  0.51118892  0.16152994  0.62756045     0.14600
C2841       C  0.61135031  0.35020574  0.59752688    -0.18300
C2842       C  0.62068826  0.33510999  0.58151553    -0.20400
C2843       C  0.61250777  0.31799991  0.58152535     0.20200
C2844       C  0.59466792  0.31606714  0.59733873    -0.03400
C2845       C  0.58524378  0.33132673  0.61365110    -0.06400
C2846       C  0.59368211  0.34844575  0.61388296     0.20500
C2847       C  0.56754012  0.32940219  0.63044263     0.18700
C2848       C  0.55933599  0.31227128  0.63014984    -0.17900
C2849       C  0.56865129  0.29715196  0.61376758    -0.20100
C2850       C  0.58636519  0.29887151  0.59751260     0.20100
C2851       C  0.59604080  0.28370397  0.58216444    -0.33100
C2852       C  0.61397936  0.28552559  0.56718115     0.00800
C2853       C  0.62199993  0.30277365  0.56663607    -0.24500
C2854       C  0.58450401  0.36345087  0.63139748    -0.29000
C2855       C  0.56702869  0.36162720  0.64928754     0.06500
C2856       C  0.55853745  0.34455803  0.64810757    -0.27700
H2857       H  0.61802638  0.36324760  0.59753766     0.11200
H2858       H  0.63438731  0.33679730  0.56944270     0.12400
H2859       H  0.54574573  0.31053623  0.64294167     0.11400
H2860       H  0.56205371  0.28407054  0.61421524     0.10700
H2861       H  0.58977118  0.27045467  0.58290374     0.16100
H2862       H  0.63578137  0.30436450  0.55499559     0.12000
H2863       H  0.59123410  0.37646914  0.63235579     0.14800
H2864       H  0.54509001  0.34295312  0.66196021     0.14600
C2865       C  0.85397416  0.28888892  0.28357095    -0.18300
C2866       C  0.85759153  0.29417133  0.23919578    -0.20400
C2867       C  0.85741519  0.28139595  0.20409244     0.20200
C2868       C  0.85331142  0.26316024  0.21363020    -0.03400
C2869       C  0.84994795  0.25777725  0.25851593    -0.06400
C2870       C  0.85030444  0.27072426  0.29356707     0.20500
C2871       C  0.84668745  0.23939100  0.26844315     0.18700
C2872       C  0.84612778  0.22670391  0.23317151    -0.17900
C2873       C  0.84905673  0.23211187  0.18850349    -0.20100
C2874       C  0.85285417  0.25025489  0.17845008     0.20100
C2875       C  0.85639170  0.25569624  0.13394606    -0.33100
C2876       C  0.86088717  0.27375456  0.12447008     0.00800
C2877       C  0.86138854  0.28651829  0.15967440    -0.24500
C2878       C  0.84760064  0.26518758  0.33819339    -0.29000
C2879       C  0.84522294  0.24680364  0.34851549     0.06500
C2880       C  0.84459198  0.23397169  0.31355273    -0.27700
H2881       H  0.85435524  0.29896578  0.31021083     0.11200
H2882       H  0.86063361  0.30822553  0.23236492     0.12400
H2883       H  0.84356572  0.21256272  0.24016910     0.11400
H2884       H  0.84863313  0.22205003  0.16189265     0.10700
H2885       H  0.85599615  0.24584216  0.10681399     0.16100
H2886       H  0.86459286  0.30050937  0.15233017     0.12000
H2887       H  0.84841357  0.27508352  0.36523742     0.14800
H2888       H  0.84282153  0.21978871  0.32158338     0.14600
C2889       C  0.84562679  0.31098466  0.73482588    -0.31100
C2890       C  0.84804680  0.30599418  0.68969278    -0.20400
C2891       C  0.85023629  0.28775180  0.67797249     0.20200
C2892       C  0.84927380  0.27432746  0.71176040    -0.03400
C2893       C  0.84644645  0.27932528  0.75703141    -0.06400
C2894       C  0.84512176  0.29778172  0.76872625     0.20500
C2895       C  0.84576995  0.26590441  0.79081533     0.18700
C2896       C  0.84745582  0.24762265  0.77899981    -0.17900
C2897       C  0.85054016  0.24267929  0.73415888    -0.20100
C2898       C  0.85178664  0.25595343  0.70056993     0.20100
C2899       C  0.85594219  0.25121709  0.65615416    -0.33100
C2900       C  0.85719078  0.26454135  0.62270802     0.00800
C2901       C  0.85387466  0.28270487  0.63331215    -0.24500
C2902       C  0.84421030  0.30272478  0.81427509    -0.29000
C2903       C  0.84440107  0.28942689  0.84797148     0.06500
C2904       C  0.84440742  0.27105570  0.83606397    -0.27700
H2905       H  0.84451657  0.32519655  0.74332531     0.11200
H2906       H  0.84869089  0.31642554  0.66413169     0.12400
H2907       H  0.84694608  0.23719240  0.80462858     0.11400
H2908       H  0.85229379  0.22852164  0.72588032     0.10700
H2909       H  0.85815338  0.23714668  0.64745332     0.16100
H2910       H  0.85475833  0.29289975  0.60715457     0.12000
H2911       H  0.84405610  0.31690695  0.82361748     0.14800
H2912       H  0.84467008  0.26078474  0.86215817     0.14600
C2913       C  0.74921120  0.24807984  0.59742494    -0.18300
C2914       C  0.76773470  0.24885087  0.58909625    -0.20400
C2915       C  0.77572198  0.23692403  0.55818824     0.20200
C2916       C  0.76503761  0.22372526  0.53633421    -0.03400
C2917       C  0.74623508  0.22295723  0.54472409    -0.06400
C2918       C  0.73834723  0.23537882  0.57494570     0.20500
C2919       C  0.73527509  0.21019471  0.52192875     0.18700
C2920       C  0.74345026  0.19797907  0.49183321    -0.17900
C2921       C  0.76212449  0.19870477  0.48361590    -0.20100
C2922       C  0.77303298  0.21170278  0.50518865     0.20100
C2923       C  0.79161715  0.21332719  0.49518360    -0.33100
C2924       C  0.80217155  0.22702130  0.51555490     0.00800
C2925       C  0.79410264  0.23841544  0.54782655    -0.24500
C2926       C  0.71964430  0.23539080  0.58111993    -0.29000
C2927       C  0.70841867  0.22331859  0.55731309     0.06500
C2928       C  0.71634924  0.21035487  0.52857661    -0.27700
H2929       H  0.74331894  0.25766936  0.62081182     0.11200
H2930       H  0.77577406  0.25902491  0.60625544     0.12400
H2931       H  0.73535379  0.18804373  0.47403652     0.11400
H2932       H  0.76797977  0.18930273  0.45969096     0.10700
H2933       H  0.79766485  0.20442803  0.47036639     0.16100
H2934       H  0.80205719  0.24887465  0.56418602     0.12000
H2935       H  0.71369936  0.24528621  0.60368155     0.14800
H2936       H  0.70780051  0.20105872  0.50993316     0.14600
C2937       C  0.91952777  0.14038021  0.59928880    -0.18300
C2938       C  0.91024051  0.15158977  0.56935774    -0.20400
C2939       C  0.89648312  0.16296725  0.58509864     0.20200
C2940       C  0.89128291  0.16234744  0.63093025    -0.03400
C2941       C  0.90062624  0.15095818  0.66114863    -0.06400
C2942       C  0.91518364  0.14039937  0.64537090     0.20500
C2943       C  0.89636071  0.15122604  0.70763831     0.18700
C2944       C  0.88208807  0.16208512  0.72296000    -0.17900
C2945       C  0.87284352  0.17342957  0.69298738    -0.20100
C2946       C  0.87766599  0.17404396  0.64715082     0.20100
C2947       C  0.86996926  0.18687275  0.61782700    -0.33100
C2948       C  0.87584175  0.18801637  0.57285368     0.00800
C2949       C  0.88866147  0.17575546  0.55642396    -0.24500
C2950       C  0.92617982  0.13137352  0.67638923    -0.29000
C2951       C  0.92307258  0.13309123  0.72295054     0.06500
C2952       C  0.90748224  0.14196913  0.73832572    -0.27700
H2953       H  0.93063072  0.13229170  0.58673033     0.11200
H2954       H  0.91430127  0.15188872  0.53419213     0.12400
H2955       H  0.87860389  0.16241722  0.75849953     0.11400
H2956       H  0.86237580  0.18221698  0.70598755     0.10700
H2957       H  0.86031319  0.19662923  0.63052866     0.16100
H2958       H  0.89332783  0.17693601  0.52180773     0.12000
H2959       H  0.93820121  0.12445773  0.66462685     0.14800
H2960       H  0.90518831  0.14343530  0.77433403     0.14600
C2961       C  0.92488368  0.16015070  0.40536322    -0.18300
C2962       C  0.94006759  0.15077130  0.39023994    -0.20400
C2963       C  0.95554915  0.16018281  0.37648044     0.20200
C2964       C  0.95586199  0.17923120  0.37847252    -0.03400
C2965       C  0.94052825  0.18871433  0.39390739    -0.06400
C2966       C  0.92494708  0.17909234  0.40705986     0.20500
C2967       C  0.94080643  0.20776915  0.39634812     0.18700
C2968       C  0.95641444  0.21714761  0.38310779    -0.17900
C2969       C  0.97158674  0.20774108  0.36748692    -0.20100
C2970       C  0.97145799  0.18877932  0.36502036     0.20100
C2971       C  0.98657125  0.17917992  0.34921453    -0.33100
C2972       C  0.98620944  0.16016505  0.34653532     0.00800
C2973       C  0.97066564  0.15082479  0.36057717    -0.24500
C2974       C  0.90974933  0.18853021  0.42219044    -0.29000
C2975       C  0.90994522  0.20748555  0.42535505     0.06500
C2976       C  0.92554510  0.21704358  0.41240820    -0.27700
H2977       H  0.91306703  0.15257675  0.41572527     0.11200
H2978       H  0.93967141  0.13613824  0.38910437     0.12400
H2979       H  0.95688356  0.23177465  0.38479630     0.11400
H2980       H  0.98343903  0.21530710  0.35734671     0.10700
H2981       H  0.99852057  0.18650629  0.33861740     0.16100
H2982       H  0.97029164  0.13618609  0.35911686     0.12000
H2983       H  0.89791756  0.18103322  0.43287722     0.14800
H2984       H  0.92583948  0.23166093  0.41512651     0.14600
C2985       C  0.89214133  0.34937285  0.37826072    -0.18300
C2986       C  0.88272872  0.33416247  0.39361318    -0.20400
C2987       C  0.89195409  0.31980401  0.41423647     0.20200
C2988       C  0.91088898  0.32073287  0.41911826    -0.03400
C2989       C  0.92043273  0.33598854  0.40302156    -0.06400
C2990       C  0.91097866  0.35043048  0.38283098     0.20500
C2991       C  0.93942735  0.33670274  0.40674756     0.18700
C2992       C  0.94865331  0.32230492  0.42718697    -0.17900
C2993       C  0.93917373  0.30734608  0.44382961    -0.20100
C2994       C  0.92029988  0.30640771  0.43993494     0.20100
C2995       C  0.91068792  0.29141885  0.45648514    -0.33100
C2996       C  0.89178896  0.29038060  0.45183865     0.00800
C2997       C  0.88256820  0.30458532  0.43018832    -0.24500
C2998       C  0.92054432  0.36551213  0.36679512    -0.29000
C2999       C  0.93949989  0.36611316  0.36931596     0.06500
C3000       C  0.94885388  0.35165730  0.38935876    -0.27700
H3001       H  0.88468888  0.36027023  0.36253669     0.11200
H3002       H  0.86820083  0.33366275  0.38950202     0.12400
H3003       H  0.96322798  0.32261521  0.43033904     0.11400
H3004       H  0.94662892  0.29645311  0.45958821     0.10700
H3005       H  0.91794687  0.28047946  0.47267019     0.16100
H3006       H  0.86802513  0.30393791  0.42637279     0.12000
H3007       H  0.91330014  0.37645328  0.35059620     0.14800
H3008       H  0.96347531  0.35202877  0.39115734     0.14600
loop_ 
_geom_bond_atom_site_label_1 
_geom_bond_atom_site_label_2 
_geom_bond_distance 
_geom_bond_site_symmetry_2 
_ccdc_geom_bond_type 
O1           C16   1.267       .  A
O1           Al9   1.931       .  S
C2           O12   1.261       .  A
C2            O3   1.258       .  A
C2         C2900   1.459       .  S
O3           Al5   1.875       .  S
O4            C6   1.264       .  A
O4           Al5   1.914       .  S
Al5          O13   1.927       .  S
Al5          O15   1.895       .  S
Al5          O14   1.779       .  S
C6           O19   1.263       .  A
C6         C2948   1.466       .  S
O7           C17   1.265       .  A
O7           Al9   1.942       .  S
O8           C21   1.263       .  A
O8          Al18   1.906       .  S
Al9          O22   1.893       .  S
Al9          O19   1.913       .  S
Al9          O14   1.787       .  S
O10          C17   1.259       .  A
O10         Al18   1.891       .  S
O11          C20   1.258       .  A
O11         Al18   1.895       .  S
O12         Al18   1.911       .  S
O13          C20   1.264       .  A
O14         Al18   1.783       .  S
O15          C16   1.261       .  A
C16        C2975   1.479       .  S
C17        C2924   1.492       .  S
C20        C2996   1.487       .  S
C21          O22   1.262       .  A
C21        C2879   1.470       .  S
O23          C38   1.263       .  A
O23         Al31   1.916       .  S
C24          O34   1.262       .  A
C24          O25   1.264       .  A
C24        C2756   1.464       .  S
O25         Al27   1.922       .  S
O26          C28   1.261       .  A
O26         Al27   1.886       .  S
Al27         O35   1.908       .  S
Al27         O37   1.908       .  S
Al27         O36   1.773       .  S
C28          O41   1.264       .  A
C28        C2804   1.461       .  S
O29          C39   1.264       .  A
O29         Al31   1.935       .  S
O30          C43   1.261       .  A
O30         Al40   1.869       .  S
Al31         O44   1.932       .  S
Al31         O41   1.918       .  S
Al31         O36   1.786       .  S
O32          C39   1.260       .  A
O32         Al40   1.899       .  S
O33          C42   1.264       .  A
O33         Al40   1.921       .  S
O34         Al40   1.904       .  S
O35          C42   1.262       .  A
O36         Al40   1.772       .  S
O37          C38   1.261       .  A
C38        C2828   1.487       .  S
C39        C2927   1.487       .  S
C42        C2852   1.482       .  S
C43          O44   1.267       .  A
C43        C2780   1.472       .  S
O45          C60   1.261       .  A
O45         Al53   1.890       .  S
C46          O56   1.260       .  A
C46          O47   1.262       .  A
C46        C2903   1.463       .  S
O47         Al49   1.904       .  S
O48          C50   1.256       .  A
O48         Al49   1.884       .  S
Al49         O57   1.883   1_556  S
Al49         O59   1.925   1_556  S
Al49         O58   1.775       .  S
C50          O63   1.262   1_556  A
C50        C2687   1.475       .  S
O51          C61   1.264       .  A
O51         Al53   1.909   1_556  S
O52          C65   1.259       .  A
O52         Al62   1.896   1_554  S
Al53         O66   1.905       .  S
Al53         O63   1.928       .  S
Al53         O58   1.779   1_554  S
O54          C61   1.267       .  A
O54         Al62   1.927       .  S
O55          C64   1.262       .  A
O55         Al62   1.924       .  S
O56         Al62   1.878       .  S
O57          C64   1.260   1_554  A
O58         Al62   1.784       .  S
O59          C60   1.265       .  A
C60        C2876   1.474       .  S
C61        C2732   1.479       .  S
C64        C2660   1.475   1_556  S
C65          O66   1.263       .  A
C65        C2708   1.453       .  S
O67          C82   1.259       .  A
O67         Al75   1.864   1_556  S
C68          O78   1.262       .  A
C68          O69   1.268       .  A
C68        C2759   1.478       .  S
O69         Al71   1.929       .  S
O70          C72   1.256       .  A
O70         Al71   1.890       .  S
Al71         O79   1.871       .  S
Al71         O81   1.933       .  S
Al71         O80   1.779       .  S
C72          O85   1.259       .  A
C72        C2591   1.477       .  S
O73          C83   1.258       .  A
O73         Al75   1.883       .  S
O74          C87   1.263       .  A
O74         Al84   1.911       .  S
Al75         O88   1.917       .  S
Al75         O85   1.908       .  S
Al75         O80   1.773       .  S
O76          C83   1.267       .  A
O76         Al84   1.936       .  S
O77          C86   1.262       .  A
O77         Al84   1.938       .  S
O78         Al84   1.880       .  S
O79          C86   1.255       .  A
O80         Al84   1.789       .  S
O81          C82   1.267   1_554  A
C82        C2783   1.475       .  S
C83        C2636   1.473       .  S
C86        C2663   1.481       .  S
C87          O88   1.264       .  A
C87        C2612   1.465   1_554  S
O89         C104   1.260       .  A
O89         Al97   1.886       .  S
C90         O100   1.261       .  A
C90          O91   1.265       .  A
C90        C2519   1.475       .  S
O91         Al93   1.915       .  S
O92          C94   1.254       .  A
O92         Al93   1.872       .  S
Al93        O101   1.859       .  S
Al93        O103   1.923       .  S
Al93        O102   1.773       .  S
C94         O107   1.264       .  A
C94        C2492   1.478       .  S
O95         C105   1.263       .  A
O95         Al97   1.892       .  S
O96         C109   1.264       .  A
O96        Al106   1.913       .  S
Al97        O110   1.911       .  S
Al97        O107   1.934       .  S
Al97        O102   1.778       .  S
O98         C105   1.271       .  A
O98        Al106   1.942       .  S
O99         C108   1.268       .  A
O99        Al106   1.960       .  S
O100       Al106   1.889       .  S
O101        C108   1.254       .  A
O102       Al106   1.787       .  S
O103        C104   1.265       .  A
C104       C2543   1.472       .  S
C105       C2855   1.484       .  S
C108       C2564   1.486       .  S
C109        O110   1.262       .  A
C109       C2615   1.465       .  S
O111        C126   1.260       .  A
O111       Al119   1.875       .  S
C112        O122   1.259       .  A
C112        O113   1.262       .  A
C112       C2444   1.469       .  S
O113       Al115   1.903       .  S
O114        C116   1.254       .  A
O114       Al115   1.890       .  S
Al115       O123   1.877       .  S
Al115       O125   1.934       .  S
Al115       O124   1.777       .  S
C116        O129   1.261       .  A
C116       C2420   1.479       .  S
O117        C127   1.263       .  A
O117       Al119   1.888       .  S
O118        C131   1.265       .  A
O118       Al128   1.924       .  S
Al119       O132   1.905       .  S
Al119       O129   1.936       .  S
Al119       O124   1.779       .  S
O120        C127   1.271       .  A
O120       Al128   1.938       .  S
O121        C130   1.266       .  A
O121       Al128   1.944       .  S
O122       Al128   1.889       .  S
O123        C130   1.258       .  A
O124       Al128   1.787       .  S
O125        C126   1.269       .  A
C126       C2468   1.467       .  S
C127       C2372   1.479       .  S
C130       C2567   1.483       .  S
C131        O132   1.261       .  A
C131       C2396   1.469       .  S
O133        C148   1.268       .  A
O133       Al141   1.931       .  S
C134        O144   1.264       .  A
C134        O135   1.261       .  A
C134       C2516   1.467       .  S
O135       Al137   1.893       .  S
O136        C138   1.262       .  A
O136       Al137   1.907       .  S
Al137       O145   1.928       .  S
Al137       O147   1.898       .  S
Al137       O146   1.776       .  S
C138        O151   1.263       .  A
C138       C2327   1.461       .  S
O139        C149   1.265       .  A
O139       Al141   1.941       .  S
O140        C153   1.264       .  A
O140       Al150   1.909       .  S
Al141       O154   1.891       .  S
Al141       O151   1.911       .  S
Al141       O146   1.786       .  S
O142        C149   1.254       .  A
O142       Al150   1.863       .  S
O143        C152   1.254       .  A
O143       Al150   1.868       .  S
O144       Al150   1.915       .  S
O145        C152   1.262       .  A
O146       Al150   1.773       .  S
O147        C148   1.263       .  A
C148       C2300   1.476       .  S
C149       C2351   1.479       .  S
C152       C2639   1.473       .  S
C153        O154   1.261       .  A
C153       C2540   1.470       .  S
O155        C170   1.264       .  A
O155       Al163   1.926       .  S
C156        O166   1.264       .  A
C156        O157   1.261       .  A
C156       C2447   1.471       .  S
O157       Al159   1.884       .  S
O158        C160   1.263       .  A
O158       Al159   1.903       .  S
Al159       O167   1.915       .  S
Al159       O169   1.891       .  S
Al159       O168   1.779       .  S
C160        O173   1.265       .  A
C160       C2276   1.464       .  S
O161        C171   1.260       .  A
O161       Al163   1.923       .  S
O162        C175   1.265       .  A
O162       Al172   1.904       .  S
Al163       O176   1.882       .  S
Al163       O173   1.915       .  S
Al163       O168   1.797       .  S
O164        C171   1.254       .  A
O164       Al172   1.875       .  S
O165        C174   1.252       .  A
O165       Al172   1.883       .  S
O166       Al172   1.912       .  S
O167        C174   1.258       .  A
O168       Al172   1.787       .  S
O169        C170   1.261       .  A
C170       C2252   1.475       .  S
C171       C2348   1.474       .  S
C174       C2228   1.472       .  S
C175        O176   1.261       .  A
C175       C2471   1.468       .  S
O177        C192   1.261       .  A
O177       Al185   1.903       .  S
C178        O188   1.258       .  A
C178        O179   1.265       .  A
C178       C2180   1.453       .  S
O179       Al181   1.915       .  S
O180        C182   1.260       .  A
O180       Al181   1.890       .  S
Al181       O189   1.915   1_554  S
Al181       O191   1.922   1_554  S
Al181       O190   1.776   1_554  S
C182        O195   1.265       .  A
C182       C2279   1.475       .  S
O183        C193   1.264       .  A
O183       Al185   1.930       .  S
O184        C197   1.261       .  A
O184       Al194   1.867       .  S
Al185       O198   1.929       .  S
Al185       O195   1.924   1_556  S
Al185       O190   1.781       .  S
O186        C193   1.260       .  A
O186       Al194   1.894       .  S
O187        C196   1.262       .  A
O187       Al194   1.912       .  S
O188       Al194   1.884   1_554  S
O189        C196   1.263       .  A
O190       Al194   1.780       .  S
O191        C192   1.263       .  A
C192       C2423   1.476       .  S
C193       C2204   1.486       .  S
C196       C2135   1.482       .  S
C197        O198   1.268       .  A
C197       C2156   1.463       .  S
O199        C214   1.265       .  A
O199       Al207   1.921       .  S
C200        O210   1.262       .  A
C200        O201   1.261       .  A
C200       C2084   1.477       .  S
O201       Al203   1.902   1_556  S
O202        C204   1.263       .  A
O202       Al203   1.915       .  S
Al203       O211   1.935       .  S
Al203       O213   1.900       .  S
Al203       O212   1.779       .  S
C204        O217   1.263       .  A
C204       C2039   1.466   1_554  S
O205        C215   1.264       .  A
O205       Al207   1.939       .  S
O206        C219   1.262       .  A
O206       Al216   1.905       .  S
Al207       O220   1.892       .  S
Al207       O217   1.909       .  S
Al207       O212   1.794       .  S
O208        C215   1.259       .  A
O208       Al216   1.880       .  S
O209        C218   1.259       .  A
O209       Al216   1.898       .  S
O210       Al216   1.919   1_556  S
O211        C218   1.265       .  A
O212       Al216   1.781       .  S
O213        C214   1.261       .  A
C214       C2060   1.476       .  S
C215       C2207   1.488       .  S
C218       C2012   1.493       .  S
C219        O220   1.261       .  A
C219       C2108   1.468       .  S
O221        C236   1.264       .  A
O221       Al229   1.928       .  S
C222        O232   1.270       .  A
C222        O223   1.258       .  A
C222       C2183   1.471       .  S
O223       Al225   1.843       .  S
O224        C226   1.263       .  A
O224       Al225   1.923       .  S
Al225       O233   1.897       .  S
Al225       O235   1.878       .  S
Al225       O234   1.777       .  S
C226        O239   1.261       .  A
C226       C2255   1.480       .  S
O227        C237   1.262       .  A
O227       Al229   1.913       .  S
O228        C241   1.265       .  A
O228       Al238   1.920       .  S
Al229       O242   1.877       .  S
Al229       O239   1.897       .  S
Al229       O234   1.777       .  S
O230        C237   1.263       .  A
O230       Al238   1.918       .  S
O231        C240   1.261       .  A
O231       Al238   1.932       .  S
O232       Al238   1.942       .  S
O233        C240   1.258       .  A
O234       Al238   1.790       .  S
O235        C236   1.257       .  A
C236       C2159   1.453       .  S
C237       C1967   1.493       .  S
C240       C1988   1.483       .  S
C241        O242   1.260       .  A
C241       C1940   1.464       .  S
O243        C258   1.261       .  A
O243       Al251   1.895       .  S
C244        O254   1.262       .  A
C244        O245   1.266       .  A
C244       C2087   1.477       .  S
O245       Al247   1.916       .  S
O246        C248   1.257       .  A
O246       Al247   1.895       .  S
Al247       O255   1.888       .  S
Al247       O257   1.913       .  S
Al247       O256   1.784       .  S
C248        O261   1.261       .  A
C248       C1916   1.487       .  S
O249        C259   1.262       .  A
O249       Al251   1.903       .  S
O250        C263   1.264       .  A
O250       Al260   1.914       .  S
Al251       O264   1.909       .  S
Al251       O261   1.924       .  S
Al251       O256   1.783       .  S
O252        C259   1.268       .  A
O252       Al260   1.940       .  S
O253        C262   1.265       .  A
O253       Al260   1.950       .  S
O254       Al260   1.889       .  S
O255        C262   1.257       .  A
O256       Al260   1.794       .  S
O257        C258   1.264       .  A
C258       C2111   1.474       .  S
C259       C1892   1.484       .  S
C262       C1991   1.493       .  S
C263        O264   1.262       .  A
C263       C1871   1.465       .  S
O265        C280   1.267       .  A
O265       Al273   1.937       .  S
C266        O276   1.262       .  A
C266        O267   1.258       .  A
C266       C1775   1.467       .  S
O267       Al269   1.879       .  S
O268        C270   1.263       .  A
O268       Al269   1.906       .  S
Al269       O277   1.926       .  S
Al269       O279   1.894       .  S
Al269       O278   1.777       .  S
C270        O283   1.261       .  A
C270       C1844   1.457       .  S
O271        C281   1.263       .  A
O271       Al273   1.931       .  S
O272        C285   1.264       .  A
O272       Al282   1.904       .  S
Al273       O286   1.892       .  S
Al273       O283   1.900       .  S
Al273       O278   1.790       .  S
O274        C281   1.257       .  A
O274       Al282   1.882       .  S
O275        C284   1.257       .  A
O275       Al282   1.887       .  S
O276       Al282   1.918       .  S
O277        C284   1.262       .  A
O278       Al282   1.782       .  S
O279        C280   1.261       .  A
C280       C1823   1.481       .  S
C281       C1796   1.475       .  S
C284       C2735   1.483   1_455  S
C285        O286   1.263       .  A
C285       C1748   1.470       .  S
O287        C302   1.271       .  A
O287       Al295   1.947       .  S
C288        O298   1.263       .  A
C288        O289   1.260       .  A
C288       C1727   1.468       .  S
O289       Al291   1.890       .  S
O290        C292   1.261       .  A
O290       Al291   1.905       .  S
Al291       O299   1.935       .  S
Al291       O301   1.906       .  S
Al291       O300   1.779       .  S
C292        O305   1.261       .  A
C292       C2036   1.462       .  S
O293        C303   1.267       .  A
O293       Al295   1.957       .  S
O294        C307   1.264       .  A
O294       Al304   1.909       .  S
Al295       O308   1.898       .  S
Al295       O305   1.909       .  S
Al295       O300   1.790       .  S
O296        C303   1.255       .  A
O296       Al304   1.863       .  S
O297        C306   1.256       .  A
O297       Al304   1.878       .  S
O298       Al304   1.923       .  S
O299        C306   1.263       .  A
O300       Al304   1.776       .  S
O301        C302   1.265       .  A
C302       C1919   1.490       .  S
C303       C1799   1.490       .  S
C306       C1679   1.481   1_455  S
C307        O308   1.261       .  A
C307       C1703   1.479       .  S
O309        C324   1.259       .  A
O309       Al317   1.884       .  S
C310        O320   1.260       .  A
C310        O311   1.263       .  A
C310       C1772   1.471       .  S
O311       Al313   1.906       .  S
O312        C314   1.257       .  A
O312       Al313   1.883   1_455  S
Al313       O321   1.881       .  S
Al313       O323   1.923   1_655  S
Al313       O322   1.775       .  S
C314        O327   1.263   1_455  A
C314       C1652   1.478       .  S
O315        C325   1.263       .  A
O315       Al317   1.899       .  S
O316        C329   1.259       .  A
O316       Al326   1.894       .  S
Al317       O330   1.904       .  S
Al317       O327   1.937       .  S
Al317       O322   1.778       .  S
O318        C325   1.269       .  A
O318       Al326   1.943       .  S
O319        C328   1.266       .  A
O319       Al326   1.942       .  S
O320       Al326   1.887       .  S
O321        C328   1.259       .  A
O322       Al326   1.787       .  S
O323        C324   1.264   1_455  A
C324       C1751   1.469       .  S
C325       C2999   1.481       .  S
C328       C1628   1.485       .  S
C329        O330   1.262       .  A
C329       C2711   1.453       .  S
O331        C346   1.258       .  A
O331       Al339   1.883       .  S
C332        O342   1.262       .  A
C332        O333   1.262       .  A
C332       C1724   1.476       .  S
O333       Al335   1.902       .  S
O334        C336   1.258       .  A
O334       Al335   1.883   1_455  S
Al335       O343   1.874       .  S
Al335       O345   1.921   1_655  S
Al335       O344   1.781       .  S
C336        O349   1.262   1_455  A
C336       C2063   1.476       .  S
O337        C347   1.260       .  A
O337       Al339   1.887       .  S
O338        C351   1.262       .  A
O338       Al348   1.907       .  S
Al339       O352   1.901       .  S
Al339       O349   1.922       .  S
Al339       O344   1.776       .  S
O340        C347   1.267       .  A
O340       Al348   1.933       .  S
O341        C350   1.267       .  A
O341       Al348   1.945       .  S
O342       Al348   1.900       .  S
O343        C350   1.258       .  A
O344       Al348   1.793       .  S
O345        C346   1.261   1_455  A
C346       C1700   1.466   1_655  S
C347       C1580   1.483       .  S
C350       C1631   1.480       .  S
C351        O352   1.262       .  A
C351       C1604   1.464       .  S
O353        C368   1.266       .  A
O353       Al361   1.933       .  S
C354        O364   1.263       .  A
C354        O355   1.256       .  A
C354       C1532   1.467       .  S
O355       Al357   1.876       .  S
O356        C358   1.264       .  A
O356       Al357   1.907       .  S
Al357       O365   1.921       .  S
Al357       O367   1.889       .  S
Al357       O366   1.778       .  S
C358        O371   1.262       .  A
C358       C2807   1.455       .  S
O359        C369   1.263       .  A
O359       Al361   1.935       .  S
O360        C373   1.266       .  A
O360       Al370   1.916       .  S
Al361       O374   1.889       .  S
Al361       O371   1.901       .  S
Al361       O366   1.789       .  S
O362        C369   1.257       .  A
O362       Al370   1.882       .  S
O363        C372   1.256       .  A
O363       Al370   1.877       .  S
O364       Al370   1.917       .  S
O365        C372   1.262       .  A
O366       Al370   1.776       .  S
O367        C368   1.259       .  A
C368       C2588   1.476       .  S
C369       C1556   1.484       .  S
C372       C1484   1.474       .  S
C373        O374   1.263       .  A
C373       C1511   1.472       .  S
O375        C390   1.263       .  A
O375       Al383   1.906       .  S
C376        O386   1.257       .  A
C376        O377   1.267       .  A
C376       C1439   1.454       .  S
O377       Al379   1.928       .  S
O378        C380   1.261       .  A
O378       Al379   1.893       .  S
Al379       O387   1.905       .  S
Al379       O389   1.910       .  S
Al379       O388   1.768       .  S
C380        O393   1.264       .  A
C380       C1415   1.465       .  S
O381        C391   1.263       .  A
O381       Al383   1.928       .  S
O382        C395   1.259       .  A
O382       Al392   1.853       .  S
Al383       O396   1.940       .  S
Al383       O393   1.923       .  S
Al383       O388   1.784       .  S
O384        C391   1.260       .  A
O384       Al392   1.903       .  S
O385        C394   1.264       .  A
O385       Al392   1.941       .  S
O386       Al392   1.879       .  S
O387        C394   1.260       .  A
O388       Al392   1.777       .  S
O389        C390   1.262       .  A
C390       C1391   1.478       .  S
C391       C1559   1.481       .  S
C394       C1964   1.485       .  S
C395        O396   1.271       .  A
C395       C1460   1.469       .  S
O397        C412   1.260       .  A
O397       Al405   1.886       .  S
C398        O408   1.260       .  A
C398        O399   1.261       .  A
C398       C1535   1.463       .  S
O399       Al401   1.900       .  S
O400        C402   1.255       .  A
O400       Al401   1.889       .  S
Al401       O409   1.888       .  S
Al401       O411   1.921       .  S
Al401       O410   1.781       .  S
C402        O415   1.261       .  A
C402       C2831   1.469       .  S
O403        C413   1.263       .  A
O403       Al405   1.908       .  S
O404        C417   1.261       .  A
O404       Al414   1.899       .  S
Al405       O418   1.906       .  S
Al405       O415   1.929       .  S
Al405       O410   1.780       .  S
O406        C413   1.268       .  A
O406       Al414   1.935       .  S
O407        C416   1.265       .  A
O407       Al414   1.944       .  S
O408       Al414   1.885       .  S
O409        C416   1.260       .  A
O410       Al414   1.788       .  S
O411        C412   1.263       .  A
C412       C1508   1.470       .  S
C413       C1319   1.485       .  S
C416       C1364   1.482       .  S
C417        O418   1.263       .  A
C417       C1343   1.457       .  S
O419        C434   1.260       .  A
O419       Al427   1.866       .  S
C420        O430   1.258       .  A
C420        O421   1.266       .  A
C420       C1436   1.470       .  S
O421       Al423   1.923       .  S
O422        C424   1.256       .  A
O422       Al423   1.896       .  S
Al423       O431   1.876       .  S
Al423       O433   1.922       .  S
Al423       O432   1.782       .  S
C424        O437   1.256       .  A
C424       C1292   1.470       .  S
O425        C435   1.261       .  A
O425       Al427   1.882       .  S
O426        C439   1.257       .  A
O426       Al436   1.898       .  S
Al427       O440   1.904       .  S
Al427       O437   1.903       .  S
Al427       O432   1.780       .  S
O428        C435   1.273       .  A
O428       Al436   1.957       .  S
O429        C438   1.264       .  A
O429       Al436   1.943       .  S
O430       Al436   1.855       .  S
O431        C438   1.256       .  A
O432       Al436   1.788       .  S
O433        C434   1.267       .  A
C434       C1463   1.467       .  S
C435       C2132   1.485       .  S
C438       C1367   1.493       .  S
C439        O440   1.260       .  A
C439       C1943   1.454       .  S
O441        C456   1.261       .  A
O441       Al449   1.922       .  S
C442        O452   1.261       .  A
C442        O443   1.264       .  A
C442       C1199   1.464       .  S
O443       Al445   1.914   1_556  S
O444        C446   1.262       .  A
O444       Al445   1.882   1_556  S
Al445       O453   1.921       .  S
Al445       O455   1.900       .  S
Al445       O454   1.775       .  S
C446        O459   1.268   1_556  A
C446       C1244   1.467       .  S
O447        C457   1.262       .  A
O447       Al449   1.934       .  S
O448        C461   1.259       .  A
O448       Al458   1.854       .  S
Al449       O462   1.934       .  S
Al449       O459   1.932       .  S
Al449       O454   1.787       .  S
O450        C457   1.256       .  A
O450       Al458   1.887       .  S
O451        C460   1.262       .  A
O451       Al458   1.910       .  S
O452       Al458   1.893   1_556  S
O453        C460   1.266       .  A
O454       Al458   1.775       .  S
O455        C456   1.258       .  A
C456       C1268   1.480       .  S
C457       C1220   1.491       .  S
C460       C1583   1.483       .  S
C461        O462   1.270       .  A
C461       C1172   1.472       .  S
O463        C478   1.260       .  A
O463       Al471   1.901       .  S
C464        O474   1.261       .  A
C464        O465   1.262       .  A
C464       C1124   1.480       .  S
O465       Al467   1.902       .  S
O466        C468   1.260       .  A
O466       Al467   1.893       .  S
Al467       O475   1.902   1_554  S
Al467       O477   1.896   1_554  S
Al467       O476   1.781   1_554  S
C468        O481   1.265       .  A
C468       C1412   1.473       .  S
O469        C479   1.261       .  A
O469       Al471   1.917       .  S
O470        C483   1.261       .  A
O470       Al480   1.890       .  S
Al471       O484   1.925       .  S
Al471       O481   1.922   1_556  S
Al471       O476   1.793       .  S
O472        C479   1.259       .  A
O472       Al480   1.890       .  S
O473        C482   1.263       .  A
O473       Al480   1.912       .  S
O474       Al480   1.910   1_554  S
O475        C482   1.260       .  A
O476       Al480   1.784       .  S
O477        C478   1.259       .  A
C478       C1295   1.471       .  S
C479       C1223   1.479       .  S
C482       C2375   1.481       .  S
C483        O484   1.266       .  A
C483       C1151   1.472       .  S
O485        C500   1.259       .  A
O485       Al493   1.866       .  S
C486        O496   1.258       .  A
C486        O487   1.267       .  A
C486       C1196   1.463       .  S
O487       Al489   1.929       .  S
O488        C490   1.257       .  A
O488       Al489   1.895       .  S
Al489       O497   1.878       .  S
Al489       O499   1.924       .  S
Al489       O498   1.783       .  S
C490        O503   1.259       .  A
C490       C1100   1.480       .  S
O491        C501   1.261       .  A
O491       Al493   1.893       .  S
O492        C505   1.264       .  A
O492       Al502   1.916       .  S
Al493       O506   1.906       .  S
Al493       O503   1.913       .  S
Al493       O498   1.771       .  S
O494        C501   1.268       .  A
O494       Al502   1.938       .  S
O495        C504   1.264       .  A
O495       Al502   1.941       .  S
O496       Al502   1.863       .  S
O497        C504   1.255       .  A
O498       Al502   1.789       .  S
O499        C500   1.266       .  A
C500       C1175   1.467       .  S
C501       C1676   1.476       .  S
C504       C1076   1.486       .  S
C505        O506   1.264       .  A
C505       C1607   1.465       .  S
O507        C522   1.266       .  A
O507       Al515   1.928       .  S
C508        O518   1.267       .  A
C508        O509   1.262       .  A
C508       C1127   1.463       .  S
O509       Al511   1.884       .  S
O510        C512   1.264       .  A
O510       Al511   1.931       .  S
Al511       O519   1.909       .  S
Al511       O521   1.906       .  S
Al511       O520   1.780       .  S
C512        O525   1.260       .  A
C512       C1388   1.482       .  S
O513        C523   1.262       .  A
O513       Al515   1.913       .  S
O514        C527   1.265       .  A
O514       Al524   1.924       .  S
Al515       O528   1.898       .  S
Al515       O525   1.904       .  S
Al515       O520   1.778       .  S
O516        C523   1.262       .  A
O516       Al524   1.903       .  S
O517        C526   1.261       .  A
O517       Al524   1.916       .  S
O518       Al524   1.939       .  S
O519        C526   1.261       .  A
O520       Al524   1.786       .  S
O521        C522   1.263       .  A
C522       C1148   1.472       .  S
C523       C2231   1.482       .  S
C526       C1079   1.481       .  S
C527        O528   1.261       .  A
C527       C2399   1.478       .  S
O529        C544   1.264       .  A
O529       Al537   1.933       .  S
C530        O540   1.265       .  A
C530        O531   1.260       .  A
C530       C1031   1.475       .  S
O531       Al533   1.889       .  S
O532        C534   1.265       .  A
O532       Al533   1.913       .  S
Al533       O541   1.918       .  S
Al533       O543   1.891       .  S
Al533       O542   1.778       .  S
C534        O547   1.265       .  A
C534       C2324   1.461       .  S
O535        C545   1.262       .  A
O535       Al537   1.934       .  S
O536        C549   1.268       .  A
O536       Al546   1.921       .  S
Al537       O550   1.889       .  S
Al537       O547   1.909       .  S
Al537       O542   1.794       .  S
O538        C545   1.259       .  A
O538       Al546   1.904       .  S
O539        C548   1.257       .  A
O539       Al546   1.893       .  S
O540       Al546   1.920       .  S
O541        C548   1.260       .  A
O542       Al546   1.779       .  S
O543        C544   1.258       .  A
C544       C2495   1.475       .  S
C545       C1052   1.494       .  S
C548       C1316   1.486       .  S
C549        O550   1.263       .  A
C549       C1007   1.473       .  S
O551        C566   1.263       .  A
O551       Al559   1.918       .  S
C552        O562   1.260       .  A
C552        O553   1.266       .  A
C552        C956   1.465       .  S
O553       Al555   1.922       .  S
O554        C556   1.259       .  A
O554       Al555   1.880       .  S
Al555       O563   1.901       .  S
Al555       O565   1.917       .  S
Al555       O564   1.770       .  S
C556        O569   1.267       .  A
C556       C1847   1.469       .  S
O557        C567   1.266       .  A
O557       Al559   1.929       .  S
O558        C571   1.259       .  A
O558       Al568   1.868       .  S
Al559       O572   1.939       .  S
Al559       O569   1.939       .  S
Al559       O564   1.782       .  S
O560        C567   1.262       .  A
O560       Al568   1.910       .  S
O561        C570   1.262       .  A
O561       Al568   1.916       .  S
O562       Al568   1.892       .  S
O563        C570   1.260       .  A
O564       Al568   1.778       .  S
O565        C566   1.263       .  A
C566       C1655   1.478       .  S
C567       C1055   1.484       .  S
C570        C935   1.472       .  S
C571        O572   1.268       .  A
C571        C980   1.476       .  S
O573        C588   1.260       .  A
O573       Al581   1.877   1_556  S
C574        O584   1.261       .  A
C574        O575   1.267       .  A
C574       C1028   1.474       .  S
O575       Al577   1.917       .  S
O576        C578   1.252       .  A
O576       Al577   1.869       .  S
Al577       O585   1.875       .  S
Al577       O587   1.931   1_554  S
Al577       O586   1.781       .  S
C578        O591   1.259       .  A
C578       C2303   1.476       .  S
O579        C589   1.260       .  A
O579       Al581   1.891       .  S
O580        C593   1.262   1_554  A
O580       Al590   1.906       .  S
Al581       O594   1.907   1_554  S
Al581       O591   1.923       .  S
Al581       O586   1.780       .  S
O582        C589   1.265       .  A
O582       Al590   1.924       .  S
O583        C592   1.260       .  A
O583       Al590   1.924       .  S
O584       Al590   1.890       .  S
O585        C592   1.254       .  A
O586       Al590   1.795       .  S
O587        C588   1.267       .  A
C588       C1004   1.476       .  S
C589       C1487   1.474       .  S
C592        C911   1.470       .  S
C593        O594   1.263       .  A
C593       C1340   1.459       .  S
O595        C610   1.259       .  A
O595       Al603   1.882   1_554  S
C596        O606   1.265       .  A
C596        O597   1.263       .  A
C596        C959   1.472       .  S
O597       Al599   1.906       .  S
O598        C600   1.258       .  A
O598       Al599   1.893       .  S
Al599       O607   1.872   1_556  S
Al599       O609   1.917   1_556  S
Al599       O608   1.778       .  S
C600        O613   1.263       .  A
C600       C1820   1.479       .  S
O601        C611   1.259       .  A
O601       Al603   1.890       .  S
O602        C615   1.265       .  A
O602       Al612   1.920   1_554  S
Al603       O616   1.912   1_556  S
Al603       O613   1.915       .  S
Al603       O608   1.773       .  S
O604        C611   1.268       .  A
O604       Al612   1.935       .  S
O605        C614   1.265       .  A
O605       Al612   1.936       .  S
O606       Al612   1.907       .  S
O607        C614   1.257   1_554  A
O608       Al612   1.788       .  S
O609        C610   1.262       .  A
C610        C983   1.474       .  S
C611        C884   1.476       .  S
C614        C908   1.481   1_556  S
C615        O616   1.263       .  A
C615        C863   1.469       .  S
O617        C632   1.261       .  A
O617       Al625   1.915       .  S
C618        O628   1.258       .  A
C618        O619   1.263       .  A
C618        C812   1.446       .  S
O619       Al621   1.911       .  S
O620        C622   1.261       .  A
O620       Al621   1.877       .  S
Al621       O629   1.913       .  S
Al621       O631   1.902       .  S
Al621       O630   1.772       .  S
C622        O635   1.267       .  A
C622       C2951   1.470       .  S
O623        C633   1.263       .  A
O623       Al625   1.925       .  S
O624        C637   1.258       .  A
O624       Al634   1.851       .  S
Al625       O638   1.932       .  S
Al625       O635   1.934       .  S
Al625       O630   1.781       .  S
O626        C633   1.259       .  A
O626       Al634   1.901       .  S
O627        C636   1.264       .  A
O627       Al634   1.915   1_455  S
O628       Al634   1.884       .  S
O629        C636   1.263   1_655  A
O630       Al634   1.771       .  S
O631        C632   1.260       .  A
C632       C2684   1.471       .  S
C633        C836   1.480       .  S
C636        C887   1.481       .  S
C637        O638   1.269       .  A
C637        C788   1.461       .  S
O639        C654   1.268       .  A
O639       Al647   1.939       .  S
C640        O650   1.264       .  A
C640        O641   1.259       .  A
C640        C740   1.475       .  S
O641       Al643   1.890       .  S
O642        C644   1.264       .  A
O642       Al643   1.913       .  S
Al643       O651   1.941       .  S
Al643       O653   1.892       .  S
Al643       O652   1.777       .  S
C644        O657   1.260       .  A
C644       C1247   1.458       .  S
O645        C655   1.266       .  A
O645       Al647   1.944       .  S
O646        C659   1.265       .  A
O646       Al656   1.914       .  S
Al647       O660   1.883       .  S
Al647       O657   1.899       .  S
Al647       O652   1.790       .  S
O648        C655   1.257       .  A
O648       Al656   1.879       .  S
O649        C658   1.258       .  A
O649       Al656   1.887   1_455  S
O650       Al656   1.920       .  S
O651        C658   1.265   1_655  A
O652       Al656   1.776       .  S
O653        C654   1.262       .  A
C654       C1103   1.482       .  S
C655        C839   1.487       .  S
C658       C1895   1.489       .  S
C659        O660   1.260       .  A
C659        C764   1.471       .  S
O661        C676   1.259       .  A
O661       Al669   1.892       .  S
C662        O672   1.268       .  A
C662        O663   1.258       .  A
C662        C815   1.461       .  S
O663       Al665   1.859       .  S
O664        C666   1.265       .  A
O664       Al665   1.922       .  S
Al665       O673   1.899       .  S
Al665       O675   1.881       .  S
Al665       O674   1.784       .  S
C666        O679   1.260       .  A
C666       C2972   1.482   1_455  S
O667        C677   1.257       .  A
O667       Al669   1.885       .  S
O668        C681   1.266       .  A
O668       Al678   1.937       .  S
Al669       O682   1.882       .  S
Al669       O679   1.899       .  S
Al669       O674   1.777       .  S
O670        C677   1.261       .  A
O670       Al678   1.908       .  S
O671        C680   1.262       .  A
O671       Al678   1.924       .  S
O672       Al678   1.926       .  S
O673        C680   1.260       .  A
O674       Al678   1.786       .  S
O675        C676   1.257       .  A
C676        C791   1.450       .  S
C677        C932   1.473       .  S
C680        C719   1.480       .  S
C681        O682   1.260       .  A
C681        C860   1.473       .  S
O683        C698   1.258       .  A
O683       Al691   1.882       .  S
C684        O694   1.263       .  A
C684        O685   1.263       .  A
C684        C743   1.470       .  S
O685       Al687   1.910       .  S
O686        C688   1.259   1_455  A
O686       Al687   1.892       .  S
Al687       O695   1.892       .  S
Al687       O697   1.921       .  S
Al687       O696   1.781       .  S
C688        O701   1.265   1_655  A
C688       C1271   1.479       .  S
O689        C699   1.264       .  A
O689       Al691   1.915       .  S
O690        C703   1.262       .  A
O690       Al700   1.906       .  S
Al691       O704   1.910       .  S
Al691       O701   1.936       .  S
Al691       O696   1.776       .  S
O692        C699   1.268       .  A
O692       Al700   1.941       .  S
O693        C702   1.266       .  A
O693       Al700   1.947       .  S
O694       Al700   1.895       .  S
O695        C702   1.260       .  A
O696       Al700   1.787       .  S
O697        C698   1.262       .  A
C698        C767   1.468       .  S
C699       C2015   1.491       .  S
C702        C716   1.490       .  S
C703        O704   1.264       .  A
C703       C1868   1.461       .  S
C705        C706   1.396       .  A
C705        C710   1.402       .  A
C705        H721   1.084       .  S
C706        C707   1.403   1_545  A
C706        H722   1.084   1_545  S
C707        C717   1.401       .  A
C707        C708   1.411   1_565  A
C708        C714   1.412       .  A
C708        C709   1.415       .  A
C709        C711   1.414       .  A
C709        C710   1.410       .  A
C710        C718   1.398       .  A
C711        C720   1.413       .  A
C711        C712   1.405       .  A
C712        C713   1.405       .  A
C712        H723   1.084       .  S
C713        C714   1.406       .  A
C713        H724   1.084       .  S
C714        C715   1.413   1_545  A
C715        C716   1.411       .  A
C715        H725   1.084       .  S
C716        C717   1.407       .  A
C717        H726   1.085       .  S
C718        C719   1.405       .  A
C718        H727   1.085       .  S
C719        C720   1.408       .  A
C720        H728   1.084       .  S
C729        C730   1.399       .  A
C729        C734   1.402   1_556  A
C729        H745   1.084       .  S
C730        C731   1.404       .  A
C730        H746   1.083       .  S
C731        C741   1.402       .  A
C731        C732   1.411       .  A
C732        C738   1.412   1_455  A
C732        C733   1.410       .  A
C733        C735   1.411   1_556  A
C733        C734   1.413   1_556  A
C734        C742   1.403       .  A
C735        C744   1.400       .  A
C735        C736   1.403   1_455  A
C736        C737   1.399   1_554  A
C736        H747   1.084       .  S
C737        C738   1.404       .  A
C737        H748   1.083       .  S
C738        C739   1.402       .  A
C739        C740   1.407       .  A
C739        H749   1.084       .  S
C740        C741   1.405   1_655  A
C741        H750   1.084       .  S
C742        C743   1.402       .  A
C742        H751   1.085       .  S
C743        C744   1.406       .  A
C744        H752   1.084   1_455  S
C753        C754   1.400       .  A
C753        C758   1.404       .  A
C753        H769   1.083       .  S
C754        C755   1.404       .  A
C754        H770   1.084       .  S
C755        C765   1.403       .  A
C755        C756   1.412       .  A
C756        C762   1.412   1_655  A
C756        C757   1.409       .  A
C757        C759   1.411   1_655  A
C757        C758   1.413       .  A
C758        C766   1.404       .  A
C759        C768   1.397       .  A
C759        C760   1.402       .  A
C760        C761   1.396       .  A
C760        H771   1.083       .  S
C761        C762   1.402       .  A
C761        H772   1.084       .  S
C762        C763   1.397   1_455  A
C763        C764   1.404       .  A
C763        H773   1.085   1_655  S
C764        C765   1.406       .  A
C765        H774   1.085       .  S
C766        C767   1.405   1_655  A
C766        H775   1.084       .  S
C767        C768   1.403       .  A
C768        H776   1.084       .  S
C777        C778   1.393       .  A
C777        C782   1.401       .  A
C777        H793   1.084       .  S
C778        C779   1.402       .  A
C778        H794   1.084   1_554  S
C779        C789   1.390   1_554  A
C779        C780   1.410   1_455  A
C780        C786   1.413       .  A
C780        C781   1.403   1_655  A
C781        C783   1.413   1_455  A
C781        C782   1.411       .  A
C782        C790   1.390       .  A
C783        C792   1.399       .  A
C783        C784   1.402       .  A
C784        C785   1.398       .  A
C784        H795   1.084       .  S
C785        C786   1.403       .  A
C785        H796   1.083       .  S
C786        C787   1.400   1_554  A
C787        C788   1.402       .  A
C787        H797   1.084       .  S
C788        C789   1.404   1_655  A
C789        H798   1.085       .  S
C790        C791   1.399       .  A
C790        H799   1.085       .  S
C791        C792   1.399   1_455  A
C792        H800   1.085       .  S
C801        C802   1.394       .  A
C801        C806   1.401       .  A
C801        H817   1.084       .  S
C802        C803   1.401       .  A
C802        H818   1.083       .  S
C803        C813   1.394       .  A
C803        C804   1.412       .  A
C804        C810   1.414   1_455  A
C804        C805   1.405       .  A
C805        C807   1.411       .  A
C805        C806   1.413       .  A
C806        C814   1.396       .  A
C807        C816   1.398       .  A
C807        C808   1.404   1_455  A
C808        C809   1.398       .  A
C808        H819   1.083       .  S
C809        C810   1.402       .  A
C809        H820   1.084       .  S
C810        C811   1.399       .  A
C811        C812   1.399       .  A
C811        H821   1.085       .  S
C812        C813   1.397   1_655  A
C813        H822   1.085       .  S
C814        C815   1.399       .  A
C814        H823   1.085       .  S
C815        C816   1.406       .  A
C816        H824   1.084       .  S
C825        C826   1.404       .  A
C825        C830   1.406       .  A
C825        H841   1.083       .  S
C826        C827   1.405       .  A
C826        H842   1.083       .  S
C827        C837   1.411       .  A
C827        C828   1.413       .  A
C828        C834   1.410       .  A
C828        C829   1.414       .  A
C829        C831   1.410   1_545  A
C829        C830   1.412       .  A
C830        C838   1.411   1_545  A
C831        C840   1.399       .  A
C831        C832   1.403   1_565  A
C832        C833   1.396       .  A
C832        H843   1.083   1_545  S
C833        C834   1.402       .  A
C833        H844   1.084       .  S
C834        C835   1.398       .  A
C835        C836   1.406       .  A
C835        H845   1.085       .  S
C836        C837   1.407       .  A
C837        H846   1.084       .  S
C838        C839   1.410       .  A
C838        H847   1.084       .  S
C839        C840   1.408       .  A
C840        H848   1.084       .  S
C849        C850   1.402       .  A
C849        C854   1.405       .  A
C849        H865   1.084       .  S
C850        C851   1.405       .  A
C850        H866   1.083       .  S
C851        C861   1.408       .  A
C851        C852   1.413       .  A
C852        C858   1.412       .  A
C852        C853   1.413       .  A
C853        C855   1.412       .  A
C853        C854   1.414       .  A
C854        C862   1.409       .  A
C855        C864   1.400       .  A
C855        C856   1.403       .  A
C856        C857   1.397       .  A
C856        H867   1.084       .  S
C857        C858   1.402       .  A
C857        H868   1.084       .  S
C858        C859   1.400       .  A
C859        C860   1.403       .  A
C859        H869   1.085       .  S
C860        C861   1.407       .  A
C861        H870   1.084       .  S
C862        C863   1.405       .  A
C862        H871   1.085       .  S
C863        C864   1.402       .  A
C864        H872   1.086       .  S
C873        C874   1.396       .  A
C873        C878   1.403       .  A
C873        H889   1.083       .  S
C874        C875   1.402       .  A
C874        H890   1.084       .  S
C875        C885   1.399       .  A
C875        C876   1.412       .  A
C876        C882   1.411       .  A
C876        C877   1.412       .  A
C877        C879   1.413       .  A
C877        C878   1.409       .  A
C878        C886   1.397       .  A
C879        C888   1.409       .  A
C879        C880   1.405       .  A
C880        C881   1.402       .  A
C880        H891   1.084       .  S
C881        C882   1.405       .  A
C881        H892   1.084       .  S
C882        C883   1.406       .  A
C883        C884   1.408       .  A
C883        H893   1.085       .  S
C884        C885   1.404       .  A
C885        H894   1.085       .  S
C886        C887   1.407       .  A
C886        H895   1.084       .  S
C887        C888   1.408       .  A
C888        H896   1.084       .  S
C897        C898   1.394       .  A
C897        C902   1.401       .  A
C897        H913   1.083       .  S
C898        C899   1.402       .  A
C898        H914   1.084       .  S
C899        C909   1.394       .  A
C899        C900   1.410       .  A
C900        C906   1.412       .  A
C900        C901   1.411       .  A
C901        C903   1.413       .  A
C901        C902   1.411       .  A
C902        C910   1.396       .  A
C903        C912   1.410       .  A
C903        C904   1.405   1_554  A
C904        C905   1.404       .  A
C904        H915   1.084       .  S
C905        C906   1.405   1_556  A
C905        H916   1.083       .  S
C906        C907   1.410   1_554  A
C907        C908   1.409   1_556  A
C907        H917   1.084       .  S
C908        C909   1.406       .  A
C909        H918   1.085       .  S
C910        C911   1.401       .  A
C910        H919   1.085       .  S
C911        C912   1.406       .  A
C912        H920   1.084       .  S
C921        C922   1.398       .  A
C921        C926   1.403       .  A
C921        H937   1.084       .  S
C922        C923   1.404       .  A
C922        H938   1.084       .  S
C923        C933   1.399       .  A
C923        C924   1.409       .  A
C924        C930   1.414       .  A
C924        C925   1.410       .  A
C925        C927   1.410       .  A
C925        C926   1.413       .  A
C926        C934   1.403       .  A
C927        C936   1.400       .  A
C927        C928   1.403       .  A
C928        C929   1.398       .  A
C928        H939   1.083       .  S
C929        C930   1.402       .  A
C929        H940   1.084       .  S
C930        C931   1.403       .  A
C931        C932   1.403       .  A
C931        H941   1.084       .  S
C932        C933   1.408       .  A
C933        H942   1.085       .  S
C934        C935   1.405       .  A
C934        H943   1.085       .  S
C935        C936   1.405       .  A
C936        H944   1.084       .  S
C945        C946   1.402       .  A
C945        C950   1.404       .  A
C945        H961   1.083       .  S
C946        C947   1.405       .  A
C946        H962   1.084       .  S
C947        C957   1.406       .  A
C947        C948   1.412       .  A
C948        C954   1.413       .  A
C948        C949   1.410       .  A
C949        C951   1.410       .  A
C949        C950   1.414       .  A
C950        C958   1.408       .  A
C951        C960   1.396       .  A
C951        C952   1.403       .  A
C952        C953   1.396       .  A
C952        H963   1.084       .  S
C953        C954   1.402       .  A
C953        H964   1.083       .  S
C954        C955   1.398       .  A
C955        C956   1.400       .  A
C955        H965   1.085       .  S
C956        C957   1.404       .  A
C957        H966   1.084       .  S
C958        C959   1.405       .  A
C958        H967   1.084       .  S
C959        C960   1.405       .  A
C960        H968   1.085       .  S
C969        C970   1.395       .  A
C969        C974   1.402       .  A
C969        H985   1.084       .  S
C970        C971   1.402       .  A
C970        H986   1.083       .  S
C971        C981   1.395       .  A
C971        C972   1.410       .  A
C972        C978   1.413       .  A
C972        C973   1.409       .  A
C973        C975   1.411       .  A
C973        C974   1.411       .  A
C974        C982   1.396       .  A
C975        C984   1.404       .  A
C975        C976   1.404       .  A
C976        C977   1.401       .  A
C976        H987   1.083       .  S
C977        C978   1.404       .  A
C977        H988   1.084       .  S
C978        C979   1.405       .  A
C979        C980   1.406       .  A
C979        H989   1.084       .  S
C980        C981   1.406       .  A
C981        H990   1.084       .  S
C982        C983   1.404       .  A
C982        H991   1.085       .  S
C983        C984   1.407       .  A
C984        H992   1.084       .  S
C993        C994   1.397       .  A
C993        C998   1.403       .  A
C993       H1009   1.084       .  S
C994        C995   1.403       .  A
C994       H1010   1.084       .  S
C995       C1005   1.399       .  A
C995        C996   1.411       .  A
C996       C1002   1.412       .  A
C996        C997   1.411       .  A
C997        C999   1.412       .  A
C997        C998   1.411       .  A
C998       C1006   1.399       .  A
C999       C1008   1.405       .  A
C999       C1000   1.404       .  A
C1000      C1001   1.401       .  A
C1000      H1011   1.084       .  S
C1001      C1002   1.404       .  A
C1001      H1012   1.083       .  S
C1002      C1003   1.406       .  A
C1003      C1004   1.406       .  A
C1003      H1013   1.084       .  S
C1004      C1005   1.406       .  A
C1005      H1014   1.085       .  S
C1006      C1007   1.405       .  A
C1006      H1015   1.085       .  S
C1007      C1008   1.406       .  A
C1008      H1016   1.085       .  S
C1017      C1018   1.400       .  A
C1017      C1022   1.404       .  A
C1017      H1033   1.083       .  S
C1018      C1019   1.404       .  A
C1018      H1034   1.083       .  S
C1019      C1029   1.406       .  A
C1019      C1020   1.413       .  A
C1020      C1026   1.411       .  A
C1020      C1021   1.411       .  A
C1021      C1023   1.413       .  A
C1021      C1022   1.411       .  A
C1022      C1030   1.404       .  A
C1023      C1032   1.402       .  A
C1023      C1024   1.403       .  A
C1024      C1025   1.398       .  A
C1024      H1035   1.083       .  S
C1025      C1026   1.403       .  A
C1025      H1036   1.084       .  S
C1026      C1027   1.400       .  A
C1027      C1028   1.405       .  A
C1027      H1037   1.085       .  S
C1028      C1029   1.406       .  A
C1029      H1038   1.084       .  S
C1030      C1031   1.406       .  A
C1030      H1039   1.084       .  S
C1031      C1032   1.405       .  A
C1032      H1040   1.084       .  S
C1041      C1042   1.399       .  A
C1041      C1046   1.403       .  A
C1041      H1057   1.083       .  S
C1042      C1043   1.403       .  A
C1042      H1058   1.084       .  S
C1043      C1053   1.405       .  A
C1043      C1044   1.412       .  A
C1044      C1050   1.411       .  A
C1044      C1045   1.417       .  A
C1045      C1047   1.414       .  A
C1045      C1046   1.410       .  A
C1046      C1054   1.402       .  A
C1047      C1056   1.413       .  A
C1047      C1048   1.405       .  A
C1048      C1049   1.404       .  A
C1048      H1059   1.083       .  S
C1049      C1050   1.406       .  A
C1049      H1060   1.083       .  S
C1050      C1051   1.411       .  A
C1051      C1052   1.412       .  A
C1051      H1061   1.084       .  S
C1052      C1053   1.408       .  A
C1053      H1062   1.084       .  S
C1054      C1055   1.407       .  A
C1054      H1063   1.085       .  S
C1055      C1056   1.408       .  A
C1056      H1064   1.084       .  S
C1065      C1066   1.397       .  A
C1065      C1070   1.403       .  A
C1065      H1081   1.084       .  S
C1066      C1067   1.403       .  A
C1066      H1082   1.084       .  S
C1067      C1077   1.400       .  A
C1067      C1068   1.410       .  A
C1068      C1074   1.412       .  A
C1068      C1069   1.414       .  A
C1069      C1071   1.413       .  A
C1069      C1070   1.410       .  A
C1070      C1078   1.399       .  A
C1071      C1080   1.410       .  A
C1071      C1072   1.405       .  A
C1072      C1073   1.403       .  A
C1072      H1083   1.083       .  S
C1073      C1074   1.405       .  A
C1073      H1084   1.083       .  S
C1074      C1075   1.411       .  A
C1075      C1076   1.409       .  A
C1075      H1085   1.084       .  S
C1076      C1077   1.408       .  A
C1077      H1086   1.085       .  S
C1078      C1079   1.407       .  A
C1078      H1087   1.085       .  S
C1079      C1080   1.408       .  A
C1080      H1088   1.084       .  S
C1089      C1090   1.399       .  A
C1089      C1094   1.404       .  A
C1089      H1105   1.084       .  S
C1090      C1091   1.403       .  A
C1090      H1106   1.084       .  S
C1091      C1101   1.404       .  A
C1091      C1092   1.412       .  A
C1092      C1098   1.412       .  A
C1092      C1093   1.414       .  A
C1093      C1095   1.412       .  A
C1093      C1094   1.411       .  A
C1094      C1102   1.404       .  A
C1095      C1104   1.405       .  A
C1095      C1096   1.404       .  A
C1096      C1097   1.400       .  A
C1096      H1107   1.084       .  S
C1097      C1098   1.404       .  A
C1097      H1108   1.083       .  S
C1098      C1099   1.405       .  A
C1099      C1100   1.407       .  A
C1099      H1109   1.084       .  S
C1100      C1101   1.406       .  A
C1101      H1110   1.085       .  S
C1102      C1103   1.408       .  A
C1102      H1111   1.084       .  S
C1103      C1104   1.408       .  A
C1104      H1112   1.084       .  S
C1113      C1114   1.404       .  A
C1113      C1118   1.406       .  A
C1113      H1129   1.083       .  S
C1114      C1115   1.405       .  A
C1114      H1130   1.084       .  S
C1115      C1125   1.409       .  A
C1115      C1116   1.413       .  A
C1116      C1122   1.410       .  A
C1116      C1117   1.411       .  A
C1117      C1119   1.412       .  A
C1117      C1118   1.413       .  A
C1118      C1126   1.410       .  A
C1119      C1128   1.395       .  A
C1119      C1120   1.400       .  A
C1120      C1121   1.393       .  A
C1120      H1131   1.084       .  S
C1121      C1122   1.402       .  A
C1121      H1132   1.083       .  S
C1122      C1123   1.394       .  A
C1123      C1124   1.406       .  A
C1123      H1133   1.084       .  S
C1124      C1125   1.409       .  A
C1125      H1134   1.084       .  S
C1126      C1127   1.406       .  A
C1126      H1135   1.084       .  S
C1127      C1128   1.397       .  A
C1128      H1136   1.085       .  S
C1137      C1138   1.399       .  A
C1137      C1142   1.404       .  A
C1137      H1153   1.084       .  S
C1138      C1139   1.404       .  A
C1138      H1154   1.083       .  S
C1139      C1149   1.403       .  A
C1139      C1140   1.412       .  A
C1140      C1146   1.413       .  A
C1140      C1141   1.413       .  A
C1141      C1143   1.412       .  A
C1141      C1142   1.412       .  A
C1142      C1150   1.404       .  A
C1143      C1152   1.405       .  A
C1143      C1144   1.404       .  A
C1144      C1145   1.400       .  A
C1144      H1155   1.084       .  S
C1145      C1146   1.404       .  A
C1145      H1156   1.083       .  S
C1146      C1147   1.405       .  A
C1147      C1148   1.404       .  A
C1147      H1157   1.084       .  S
C1148      C1149   1.405       .  A
C1149      H1158   1.084       .  S
C1150      C1151   1.404       .  A
C1150      H1159   1.085       .  S
C1151      C1152   1.404       .  A
C1152      H1160   1.085       .  S
C1161      C1162   1.399       .  A
C1161      C1166   1.403       .  A
C1161      H1177   1.084       .  S
C1162      C1163   1.403       .  A
C1162      H1178   1.083       .  S
C1163      C1173   1.403       .  A
C1163      C1164   1.413       .  A
C1164      C1170   1.409       .  A
C1164      C1165   1.407       .  A
C1165      C1167   1.411       .  A
C1165      C1166   1.412       .  A
C1166      C1174   1.402       .  A
C1167      C1176   1.394       .  A
C1167      C1168   1.402       .  A
C1168      C1169   1.394       .  A
C1168      H1179   1.084       .  S
C1169      C1170   1.402       .  A
C1169      H1180   1.084       .  S
C1170      C1171   1.393       .  A
C1171      C1172   1.407       .  A
C1171      H1181   1.085       .  S
C1172      C1173   1.405       .  A
C1173      H1182   1.084       .  S
C1174      C1175   1.404       .  A
C1174      H1183   1.084       .  S
C1175      C1176   1.404       .  A
C1176      H1184   1.085       .  S
C1185      C1186   1.399       .  A
C1185      C1190   1.403       .  A
C1185      H1201   1.083       .  S
C1186      C1187   1.403       .  A
C1186      H1202   1.083       .  S
C1187      C1197   1.403       .  A
C1187      C1188   1.414       .  A
C1188      C1194   1.410       .  A
C1188      C1189   1.407       .  A
C1189      C1191   1.412       .  A
C1189      C1190   1.412       .  A
C1190      C1198   1.400       .  A
C1191      C1200   1.396       .  A
C1191      C1192   1.402       .  A
C1192      C1193   1.395       .  A
C1192      H1203   1.084       .  S
C1193      C1194   1.403       .  A
C1193      H1204   1.084       .  S
C1194      C1195   1.394       .  A
C1195      C1196   1.404       .  A
C1195      H1205   1.085       .  S
C1196      C1197   1.401       .  A
C1197      H1206   1.084       .  S
C1198      C1199   1.402       .  A
C1198      H1207   1.084       .  S
C1199      C1200   1.404       .  A
C1200      H1208   1.085       .  S
C1209      C1210   1.394       .  A
C1209      C1214   1.401       .  A
C1209      H1225   1.084       .  S
C1210      C1211   1.403       .  A
C1210      H1226   1.084       .  S
C1211      C1221   1.396       .  A
C1211      C1212   1.409       .  A
C1212      C1218   1.413       .  A
C1212      C1213   1.414       .  A
C1213      C1215   1.413       .  A
C1213      C1214   1.410       .  A
C1214      C1222   1.395       .  A
C1215      C1224   1.413   1_554  A
C1215      C1216   1.406       .  A
C1216      C1217   1.406       .  A
C1216      H1227   1.083   1_554  S
C1217      C1218   1.406       .  A
C1217      H1228   1.083       .  S
C1218      C1219   1.415       .  A
C1219      C1220   1.411       .  A
C1219      H1229   1.083       .  S
C1220      C1221   1.409       .  A
C1221      H1230   1.084       .  S
C1222      C1223   1.405   1_554  A
C1222      H1231   1.085       .  S
C1223      C1224   1.408       .  A
C1224      H1232   1.084       .  S
C1233      C1234   1.397       .  A
C1233      C1238   1.403       .  A
C1233      H1249   1.084       .  S
C1234      C1235   1.403       .  A
C1234      H1250   1.084       .  S
C1235      C1245   1.400       .  A
C1235      C1236   1.413       .  A
C1236      C1242   1.413       .  A
C1236      C1237   1.410       .  A
C1237      C1239   1.414       .  A
C1237      C1238   1.412       .  A
C1238      C1246   1.398       .  A
C1239      C1248   1.403       .  A
C1239      C1240   1.403       .  A
C1240      C1241   1.399       .  A
C1240      H1251   1.083       .  S
C1241      C1242   1.404       .  A
C1241      H1252   1.084       .  S
C1242      C1243   1.403       .  A
C1243      C1244   1.404       .  A
C1243      H1253   1.085   1_556  S
C1244      C1245   1.403       .  A
C1245      H1254   1.085       .  S
C1246      C1247   1.401       .  A
C1246      H1255   1.085       .  S
C1247      C1248   1.400       .  A
C1248      H1256   1.084       .  S
C1257      C1258   1.397       .  A
C1257      C1262   1.403       .  A
C1257      H1273   1.083       .  S
C1258      C1259   1.403       .  A
C1258      H1274   1.084       .  S
C1259      C1269   1.400       .  A
C1259      C1260   1.410       .  A
C1260      C1266   1.414       .  A
C1260      C1261   1.415       .  A
C1261      C1263   1.412       .  A
C1261      C1262   1.413       .  A
C1262      C1270   1.403       .  A
C1263      C1272   1.409       .  A
C1263      C1264   1.405       .  A
C1264      C1265   1.403       .  A
C1264      H1275   1.083       .  S
C1265      C1266   1.405       .  A
C1265      H1276   1.084       .  S
C1266      C1267   1.412       .  A
C1267      C1268   1.407       .  A
C1267      H1277   1.084       .  S
C1268      C1269   1.406       .  A
C1269      H1278   1.085       .  S
C1270      C1271   1.405       .  A
C1270      H1279   1.084       .  S
C1271      C1272   1.408       .  A
C1272      H1280   1.084       .  S
C1281      C1282   1.398       .  A
C1281      C1286   1.403       .  A
C1281      H1297   1.084       .  S
C1282      C1283   1.403       .  A
C1282      H1298   1.083       .  S
C1283      C1293   1.401       .  A
C1283      C1284   1.413       .  A
C1284      C1290   1.412       .  A
C1284      C1285   1.411       .  A
C1285      C1287   1.413       .  A
C1285      C1286   1.411       .  A
C1286      C1294   1.399       .  A
C1287      C1296   1.405       .  A
C1287      C1288   1.404       .  A
C1288      C1289   1.400       .  A
C1288      H1299   1.084       .  S
C1289      C1290   1.404       .  A
C1289      H1300   1.083       .  S
C1290      C1291   1.404       .  A
C1291      C1292   1.405       .  A
C1291      H1301   1.084       .  S
C1292      C1293   1.403       .  A
C1293      H1302   1.084       .  S
C1294      C1295   1.405       .  A
C1294      H1303   1.085       .  S
C1295      C1296   1.405       .  A
C1296      H1304   1.084       .  S
C1305      C1306   1.398       .  A
C1305      C1310   1.403       .  A
C1305      H1321   1.083       .  S
C1306      C1307   1.403       .  A
C1306      H1322   1.084       .  S
C1307      C1317   1.403       .  A
C1307      C1308   1.412       .  A
C1308      C1314   1.411       .  A
C1308      C1309   1.415       .  A
C1309      C1311   1.413       .  A
C1309      C1310   1.411       .  A
C1310      C1318   1.402       .  A
C1311      C1320   1.410       .  A
C1311      C1312   1.405       .  A
C1312      C1313   1.403       .  A
C1312      H1323   1.083       .  S
C1313      C1314   1.405       .  A
C1313      H1324   1.084       .  S
C1314      C1315   1.409       .  A
C1315      C1316   1.410       .  A
C1315      H1325   1.084       .  S
C1316      C1317   1.407       .  A
C1317      H1326   1.084       .  S
C1318      C1319   1.407       .  A
C1318      H1327   1.084       .  S
C1319      C1320   1.409       .  A
C1320      H1328   1.084       .  S
C1329      C1330   1.397       .  A
C1329      C1334   1.402       .  A
C1329      H1345   1.083       .  S
C1330      C1331   1.403       .  A
C1330      H1346   1.084       .  S
C1331      C1341   1.399       .  A
C1331      C1332   1.412       .  A
C1332      C1338   1.414       .  A
C1332      C1333   1.410       .  A
C1333      C1335   1.412       .  A
C1333      C1334   1.414       .  A
C1334      C1342   1.400       .  A
C1335      C1344   1.401       .  A
C1335      C1336   1.404       .  A
C1336      C1337   1.399       .  A
C1336      H1347   1.083       .  S
C1337      C1338   1.403       .  A
C1337      H1348   1.084       .  S
C1338      C1339   1.403       .  A
C1339      C1340   1.401       .  A
C1339      H1349   1.085       .  S
C1340      C1341   1.402       .  A
C1341      H1350   1.085   1_556  S
C1342      C1343   1.399       .  A
C1342      H1351   1.085       .  S
C1343      C1344   1.402       .  A
C1344      H1352   1.085       .  S
C1353      C1354   1.407       .  A
C1353      C1358   1.407       .  A
C1353      H1369   1.084       .  S
C1354      C1355   1.407       .  A
C1354      H1370   1.084       .  S
C1355      C1365   1.417       .  A
C1355      C1356   1.413       .  A
C1356      C1362   1.411       .  A
C1356      C1357   1.416       .  A
C1357      C1359   1.410   1_545  A
C1357      C1358   1.412       .  A
C1358      C1366   1.416   1_545  A
C1359      C1368   1.397       .  A
C1359      C1360   1.402   1_565  A
C1360      C1361   1.394       .  A
C1360      H1371   1.083   1_545  S
C1361      C1362   1.401       .  A
C1361      H1372   1.084       .  S
C1362      C1363   1.397       .  A
C1363      C1364   1.402       .  A
C1363      H1373   1.085       .  S
C1364      C1365   1.411       .  A
C1365      H1374   1.084       .  S
C1366      C1367   1.413       .  A
C1366      H1375   1.084       .  S
C1367      C1368   1.408       .  A
C1368      H1376   1.084       .  S
C1377      C1378   1.399       .  A
C1377      C1382   1.403       .  A
C1377      H1393   1.083       .  S
C1378      C1379   1.404       .  A
C1378      H1394   1.083       .  S
C1379      C1389   1.403       .  A
C1379      C1380   1.411       .  A
C1380      C1386   1.413       .  A
C1380      C1381   1.414       .  A
C1381      C1383   1.411       .  A
C1381      C1382   1.413       .  A
C1382      C1390   1.405       .  A
C1383      C1392   1.404       .  A
C1383      C1384   1.404       .  A
C1384      C1385   1.401       .  A
C1384      H1395   1.084       .  S
C1385      C1386   1.404       .  A
C1385      H1396   1.084       .  S
C1386      C1387   1.407       .  A
C1387      C1388   1.407       .  A
C1387      H1397   1.085       .  S
C1388      C1389   1.407       .  A
C1389      H1398   1.084       .  S
C1390      C1391   1.405       .  A
C1390      H1399   1.084       .  S
C1391      C1392   1.407       .  A
C1392      H1400   1.085       .  S
C1401      C1402   1.398       .  A
C1401      C1406   1.402       .  A
C1401      H1417   1.083       .  S
C1402      C1403   1.403       .  A
C1402      H1418   1.084       .  S
C1403      C1413   1.401       .  A
C1403      C1404   1.411       .  A
C1404      C1410   1.413       .  A
C1404      C1405   1.411       .  A
C1405      C1407   1.411       .  A
C1405      C1406   1.414       .  A
C1406      C1414   1.403       .  A
C1407      C1416   1.402       .  A
C1407      C1408   1.404       .  A
C1408      C1409   1.399       .  A
C1408      H1419   1.084       .  S
C1409      C1410   1.404       .  A
C1409      H1420   1.084       .  S
C1410      C1411   1.404       .  A
C1411      C1412   1.406       .  A
C1411      H1421   1.085       .  S
C1412      C1413   1.404       .  A
C1413      H1422   1.085       .  S
C1414      C1415   1.401       .  A
C1414      H1423   1.084       .  S
C1415      C1416   1.404       .  A
C1416      H1424   1.085       .  S
C1425      C1426   1.400       .  A
C1425      C1430   1.404       .  A
C1425      H1441   1.083       .  S
C1426      C1427   1.403       .  A
C1426      H1442   1.084       .  S
C1427      C1437   1.403   1_554  A
C1427      C1428   1.413       .  A
C1428      C1434   1.410       .  A
C1428      C1429   1.406       .  A
C1429      C1431   1.413       .  A
C1429      C1430   1.412       .  A
C1430      C1438   1.402       .  A
C1431      C1440   1.394       .  A
C1431      C1432   1.401       .  A
C1432      C1433   1.393       .  A
C1432      H1443   1.084       .  S
C1433      C1434   1.402       .  A
C1433      H1444   1.083       .  S
C1434      C1435   1.392   1_554  A
C1435      C1436   1.405       .  A
C1435      H1445   1.084       .  S
C1436      C1437   1.405       .  A
C1437      H1446   1.084       .  S
C1438      C1439   1.402       .  A
C1438      H1447   1.084       .  S
C1439      C1440   1.397       .  A
C1440      H1448   1.085       .  S
C1449      C1450   1.398       .  A
C1449      C1454   1.403       .  A
C1449      H1465   1.083       .  S
C1450      C1451   1.403       .  A
C1450      H1466   1.084       .  S
C1451      C1461   1.402       .  A
C1451      C1452   1.413       .  A
C1452      C1458   1.409       .  A
C1452      C1453   1.406       .  A
C1453      C1455   1.411       .  A
C1453      C1454   1.411       .  A
C1454      C1462   1.400       .  A
C1455      C1464   1.394       .  A
C1455      C1456   1.402       .  A
C1456      C1457   1.394       .  A
C1456      H1467   1.084       .  S
C1457      C1458   1.402       .  A
C1457      H1468   1.084       .  S
C1458      C1459   1.392       .  A
C1459      C1460   1.406       .  A
C1459      H1469   1.084       .  S
C1460      C1461   1.404       .  A
C1461      H1470   1.084       .  S
C1462      C1463   1.404       .  A
C1462      H1471   1.084       .  S
C1463      C1464   1.404       .  A
C1464      H1472   1.085       .  S
C1473      C1474   1.396       .  A
C1473      C1478   1.402       .  A
C1473      H1489   1.084       .  S
C1474      C1475   1.403       .  A
C1474      H1490   1.083       .  S
C1475      C1485   1.398       .  A
C1475      C1476   1.410       .  A
C1476      C1482   1.413       .  A
C1476      C1477   1.410       .  A
C1477      C1479   1.411       .  A
C1477      C1478   1.412       .  A
C1478      C1486   1.399       .  A
C1479      C1488   1.403       .  A
C1479      C1480   1.404       .  A
C1480      C1481   1.400       .  A
C1480      H1491   1.084       .  S
C1481      C1482   1.404       .  A
C1481      H1492   1.084       .  S
C1482      C1483   1.405       .  A
C1483      C1484   1.406       .  A
C1483      H1493   1.085       .  S
C1484      C1485   1.405       .  A
C1485      H1494   1.084       .  S
C1486      C1487   1.405       .  A
C1486      H1495   1.085       .  S
C1487      C1488   1.406       .  A
C1488      H1496   1.085       .  S
C1497      C1498   1.400       .  A
C1497      C1502   1.404   1_556  A
C1497      H1513   1.084       .  S
C1498      C1499   1.404       .  A
C1498      H1514   1.083       .  S
C1499      C1509   1.404       .  A
C1499      C1500   1.412       .  A
C1500      C1506   1.412       .  A
C1500      C1501   1.410       .  A
C1501      C1503   1.411   1_556  A
C1501      C1502   1.412   1_556  A
C1502      C1510   1.404       .  A
C1503      C1512   1.398       .  A
C1503      C1504   1.403       .  A
C1504      C1505   1.396   1_554  A
C1504      H1515   1.084       .  S
C1505      C1506   1.402       .  A
C1505      H1516   1.083       .  S
C1506      C1507   1.399       .  A
C1507      C1508   1.403       .  A
C1507      H1517   1.084       .  S
C1508      C1509   1.405       .  A
C1509      H1518   1.084       .  S
C1510      C1511   1.406       .  A
C1510      H1519   1.085       .  S
C1511      C1512   1.405       .  A
C1512      H1520   1.085       .  S
C1521      C1522   1.397       .  A
C1521      C1526   1.402       .  A
C1521      H1537   1.084       .  S
C1522      C1523   1.403       .  A
C1522      H1538   1.083       .  S
C1523      C1533   1.399       .  A
C1523      C1524   1.412       .  A
C1524      C1530   1.412       .  A
C1524      C1525   1.407       .  A
C1525      C1527   1.411       .  A
C1525      C1526   1.413       .  A
C1526      C1534   1.399       .  A
C1527      C1536   1.397       .  A
C1527      C1528   1.403       .  A
C1528      C1529   1.397       .  A
C1528      H1539   1.084       .  S
C1529      C1530   1.403       .  A
C1529      H1540   1.083       .  S
C1530      C1531   1.399       .  A
C1531      C1532   1.405       .  A
C1531      H1541   1.084       .  S
C1532      C1533   1.402       .  A
C1533      H1542   1.084       .  S
C1534      C1535   1.401       .  A
C1534      H1543   1.084       .  S
C1535      C1536   1.405       .  A
C1536      H1544   1.085       .  S
C1545      C1546   1.405       .  A
C1545      C1550   1.406   1_545  A
C1545      H1561   1.083   1_545  S
C1546      C1547   1.406       .  A
C1546      H1562   1.084       .  S
C1547      C1557   1.410       .  A
C1547      C1548   1.411       .  A
C1548      C1554   1.411       .  A
C1548      C1549   1.414       .  A
C1549      C1551   1.410       .  A
C1549      C1550   1.414   1_545  A
C1550      C1558   1.414       .  A
C1551      C1560   1.396   1_545  A
C1551      C1552   1.402       .  A
C1552      C1553   1.395       .  A
C1552      H1563   1.084       .  S
C1553      C1554   1.402       .  A
C1553      H1564   1.084       .  S
C1554      C1555   1.398       .  A
C1555      C1556   1.406       .  A
C1555      H1565   1.084       .  S
C1556      C1557   1.410       .  A
C1557      H1566   1.084       .  S
C1558      C1559   1.409       .  A
C1558      H1567   1.084       .  S
C1559      C1560   1.405       .  A
C1560      H1568   1.085       .  S
C1569      C1570   1.400       .  A
C1569      C1574   1.403       .  A
C1569      H1585   1.084       .  S
C1570      C1571   1.404       .  A
C1570      H1586   1.084       .  S
C1571      C1581   1.403       .  A
C1571      C1572   1.410       .  A
C1572      C1578   1.413       .  A
C1572      C1573   1.412       .  A
C1573      C1575   1.409       .  A
C1573      C1574   1.414       .  A
C1574      C1582   1.407       .  A
C1575      C1584   1.399       .  A
C1575      C1576   1.404       .  A
C1576      C1577   1.398       .  A
C1576      H1587   1.084       .  S
C1577      C1578   1.403       .  A
C1577      H1588   1.084       .  S
C1578      C1579   1.404       .  A
C1579      C1580   1.407       .  A
C1579      H1589   1.085       .  S
C1580      C1581   1.409       .  A
C1581      H1590   1.085       .  S
C1582      C1583   1.406       .  A
C1582      H1591   1.084       .  S
C1583      C1584   1.410       .  A
C1584      H1592   1.085       .  S
C1593      C1594   1.395       .  A
C1593      C1598   1.402       .  A
C1593      H1609   1.084       .  S
C1594      C1595   1.402       .  A
C1594      H1610   1.084       .  S
C1595      C1605   1.397       .  A
C1595      C1596   1.413       .  A
C1596      C1602   1.413       .  A
C1596      C1597   1.411       .  A
C1597      C1599   1.415       .  A
C1597      C1598   1.410       .  A
C1598      C1606   1.393       .  A
C1599      C1608   1.410       .  A
C1599      C1600   1.404       .  A
C1600      C1601   1.402       .  A
C1600      H1611   1.084       .  S
C1601      C1602   1.405       .  A
C1601      H1612   1.083       .  S
C1602      C1603   1.407       .  A
C1603      C1604   1.404       .  A
C1603      H1613   1.084       .  S
C1604      C1605   1.401       .  A
C1605      H1614   1.084       .  S
C1606      C1607   1.402       .  A
C1606      H1615   1.085       .  S
C1607      C1608   1.403       .  A
C1608      H1616   1.084       .  S
C1617      C1618   1.394       .  A
C1617      C1622   1.402   1_455  A
C1617      H1633   1.083       .  S
C1618      C1619   1.402   1_455  A
C1618      H1634   1.083       .  S
C1619      C1629   1.397       .  A
C1619      C1620   1.411       .  A
C1620      C1626   1.412       .  A
C1620      C1621   1.414       .  A
C1621      C1623   1.413       .  A
C1621      C1622   1.410       .  A
C1622      C1630   1.395       .  A
C1623      C1632   1.414       .  A
C1623      C1624   1.406       .  A
C1624      C1625   1.405       .  A
C1624      H1635   1.084       .  S
C1625      C1626   1.406       .  A
C1625      H1636   1.084       .  S
C1626      C1627   1.413       .  A
C1627      C1628   1.410       .  A
C1627      H1637   1.084       .  S
C1628      C1629   1.406       .  A
C1629      H1638   1.084       .  S
C1630      C1631   1.405       .  A
C1630      H1639   1.084       .  S
C1631      C1632   1.409       .  A
C1632      H1640   1.084       .  S
C1641      C1642   1.397       .  A
C1641      C1646   1.403       .  A
C1641      H1657   1.084       .  S
C1642      C1643   1.402       .  A
C1642      H1658   1.084       .  S
C1643      C1653   1.399       .  A
C1643      C1644   1.411       .  A
C1644      C1650   1.413       .  A
C1644      C1645   1.414       .  A
C1645      C1647   1.413       .  A
C1645      C1646   1.412       .  A
C1646      C1654   1.400       .  A
C1647      C1656   1.410       .  A
C1647      C1648   1.405       .  A
C1648      C1649   1.403       .  A
C1648      H1659   1.084       .  S
C1649      C1650   1.405       .  A
C1649      H1660   1.083       .  S
C1650      C1651   1.410       .  A
C1651      C1652   1.408       .  A
C1651      H1661   1.084       .  S
C1652      C1653   1.404       .  A
C1653      H1662   1.085       .  S
C1654      C1655   1.405       .  A
C1654      H1663   1.085       .  S
C1655      C1656   1.407       .  A
C1656      H1664   1.084       .  S
C1665      C1666   1.401       .  A
C1665      C1670   1.404       .  A
C1665      H1681   1.083       .  S
C1666      C1667   1.404       .  A
C1666      H1682   1.084       .  S
C1667      C1677   1.404       .  A
C1667      C1668   1.411       .  A
C1668      C1674   1.412       .  A
C1668      C1669   1.412       .  A
C1669      C1671   1.410       .  A
C1669      C1670   1.413       .  A
C1670      C1678   1.407       .  A
C1671      C1680   1.400       .  A
C1671      C1672   1.403       .  A
C1672      C1673   1.397       .  A
C1672      H1683   1.084       .  S
C1673      C1674   1.403       .  A
C1673      H1684   1.083       .  S
C1674      C1675   1.401       .  A
C1675      C1676   1.406       .  A
C1675      H1685   1.084       .  S
C1676      C1677   1.407       .  A
C1677      H1686   1.084       .  S
C1678      C1679   1.407       .  A
C1678      H1687   1.084       .  S
C1679      C1680   1.407       .  A
C1680      H1688   1.085       .  S
C1689      C1690   1.394       .  A
C1689      C1694   1.402   1_655  A
C1689      H1705   1.083       .  S
C1690      C1691   1.401       .  A
C1690      H1706   1.083       .  S
C1691      C1701   1.395       .  A
C1691      C1692   1.411   1_655  A
C1692      C1698   1.413       .  A
C1692      C1693   1.410       .  A
C1693      C1695   1.412       .  A
C1693      C1694   1.410       .  A
C1694      C1702   1.395       .  A
C1695      C1704   1.408       .  A
C1695      C1696   1.405       .  A
C1696      C1697   1.403       .  A
C1696      H1707   1.084       .  S
C1697      C1698   1.405       .  A
C1697      H1708   1.083       .  S
C1698      C1699   1.407       .  A
C1699      C1700   1.406       .  A
C1699      H1709   1.084       .  S
C1700      C1701   1.400   1_455  A
C1701      H1710   1.083       .  S
C1702      C1703   1.405       .  A
C1702      H1711   1.084       .  S
C1703      C1704   1.409       .  A
C1704      H1712   1.084       .  S
C1713      C1714   1.400       .  A
C1713      C1718   1.404       .  A
C1713      H1729   1.083       .  S
C1714      C1715   1.404   1_556  A
C1714      H1730   1.084       .  S
C1715      C1725   1.406       .  A
C1715      C1716   1.413   1_554  A
C1716      C1722   1.410   1_656  A
C1716      C1717   1.410       .  A
C1717      C1719   1.412   1_655  A
C1717      C1718   1.412       .  A
C1718      C1726   1.404       .  A
C1719      C1728   1.399       .  A
C1719      C1720   1.402       .  A
C1720      C1721   1.396   1_556  A
C1720      H1731   1.083       .  S
C1721      C1722   1.403       .  A
C1721      H1732   1.084       .  S
C1722      C1723   1.396       .  A
C1723      C1724   1.407   1_455  A
C1723      H1733   1.084       .  S
C1724      C1725   1.406       .  A
C1725      H1734   1.084       .  S
C1726      C1727   1.404   1_655  A
C1726      H1735   1.084       .  S
C1727      C1728   1.403       .  A
C1728      H1736   1.084       .  S
C1737      C1738   1.399       .  A
C1737      C1742   1.404       .  A
C1737      H1753   1.083       .  S
C1738      C1739   1.403       .  A
C1738      H1754   1.084       .  S
C1739      C1749   1.403   1_554  A
C1739      C1740   1.413       .  A
C1740      C1746   1.410       .  A
C1740      C1741   1.408       .  A
C1741      C1743   1.412   1_455  A
C1741      C1742   1.412       .  A
C1742      C1750   1.402       .  A
C1743      C1752   1.398       .  A
C1743      C1744   1.402       .  A
C1744      C1745   1.396       .  A
C1744      H1755   1.083       .  S
C1745      C1746   1.403   1_655  A
C1745      H1756   1.084   1_554  S
C1746      C1747   1.396   1_554  A
C1747      C1748   1.405       .  A
C1747      H1757   1.085   1_455  S
C1748      C1749   1.404       .  A
C1749      H1758   1.085       .  S
C1750      C1751   1.404   1_455  A
C1750      H1759   1.084       .  S
C1751      C1752   1.404       .  A
C1752      H1760   1.084       .  S
C1761      C1762   1.399       .  A
C1761      C1766   1.404       .  A
C1761      H1777   1.083       .  S
C1762      C1763   1.403       .  A
C1762      H1778   1.083       .  S
C1763      C1773   1.402       .  A
C1763      C1764   1.412       .  A
C1764      C1770   1.411   1_655  A
C1764      C1765   1.409       .  A
C1765      C1767   1.411   1_655  A
C1765      C1766   1.413       .  A
C1766      C1774   1.403       .  A
C1767      C1776   1.397       .  A
C1767      C1768   1.402       .  A
C1768      C1769   1.396       .  A
C1768      H1779   1.083       .  S
C1769      C1770   1.403       .  A
C1769      H1780   1.084       .  S
C1770      C1771   1.397       .  A
C1771      C1772   1.405   1_455  A
C1771      H1781   1.085       .  S
C1772      C1773   1.405       .  A
C1773      H1782   1.084       .  S
C1774      C1775   1.404   1_655  A
C1774      H1783   1.084       .  S
C1775      C1776   1.403       .  A
C1776      H1784   1.084       .  S
C1785      C1786   1.394       .  A
C1785      C1790   1.402       .  A
C1785      H1801   1.084       .  S
C1786      C1787   1.401       .  A
C1786      H1802   1.084       .  S
C1787      C1797   1.397       .  A
C1787      C1788   1.412       .  A
C1788      C1794   1.412       .  A
C1788      C1789   1.414       .  A
C1789      C1791   1.413       .  A
C1789      C1790   1.408       .  A
C1790      C1798   1.394       .  A
C1791      C1800   1.415       .  A
C1791      C1792   1.406       .  A
C1792      C1793   1.406       .  A
C1792      H1803   1.083       .  S
C1793      C1794   1.406       .  A
C1793      H1804   1.083       .  S
C1794      C1795   1.412       .  A
C1795      C1796   1.408       .  A
C1795      H1805   1.084       .  S
C1796      C1797   1.402       .  A
C1797      H1806   1.085       .  S
C1798      C1799   1.409       .  A
C1798      H1807   1.084       .  S
C1799      C1800   1.411       .  A
C1800      H1808   1.084       .  S
C1809      C1810   1.401       .  A
C1809      C1814   1.405       .  A
C1809      H1825   1.084       .  S
C1810      C1811   1.404       .  A
C1810      H1826   1.083       .  S
C1811      C1821   1.406       .  A
C1811      C1812   1.412       .  A
C1812      C1818   1.411       .  A
C1812      C1813   1.413       .  A
C1813      C1815   1.412       .  A
C1813      C1814   1.411       .  A
C1814      C1822   1.405       .  A
C1815      C1824   1.403       .  A
C1815      C1816   1.403       .  A
C1816      C1817   1.398       .  A
C1816      H1827   1.084       .  S
C1817      C1818   1.403       .  A
C1817      H1828   1.084       .  S
C1818      C1819   1.401       .  A
C1819      C1820   1.406       .  A
C1819      H1829   1.085       .  S
C1820      C1821   1.408       .  A
C1821      H1830   1.084       .  S
C1822      C1823   1.409       .  A
C1822      H1831   1.084       .  S
C1823      C1824   1.406       .  A
C1824      H1832   1.085       .  S
C1833      C1834   1.400       .  A
C1833      C1838   1.404       .  A
C1833      H1849   1.083       .  S
C1834      C1835   1.403       .  A
C1834      H1850   1.084       .  S
C1835      C1845   1.404       .  A
C1835      C1836   1.414       .  A
C1836      C1842   1.412       .  A
C1836      C1837   1.410       .  A
C1837      C1839   1.413       .  A
C1837      C1838   1.412       .  A
C1838      C1846   1.404       .  A
C1839      C1848   1.399       .  A
C1839      C1840   1.403       .  A
C1840      C1841   1.396       .  A
C1840      H1851   1.083       .  S
C1841      C1842   1.402       .  A
C1841      H1852   1.085       .  S
C1842      C1843   1.397       .  A
C1843      C1844   1.400       .  A
C1843      H1853   1.086       .  S
C1844      C1845   1.401       .  A
C1845      H1854   1.085       .  S
C1846      C1847   1.406       .  A
C1846      H1855   1.085       .  S
C1847      C1848   1.403       .  A
C1848      H1856   1.085       .  S
C1857      C1858   1.401       .  A
C1857      C1862   1.405       .  A
C1857      H1873   1.085       .  S
C1858      C1859   1.404       .  A
C1858      H1874   1.083       .  S
C1859      C1869   1.406       .  A
C1859      C1860   1.414       .  A
C1860      C1866   1.412       .  A
C1860      C1861   1.412       .  A
C1861      C1863   1.414       .  A
C1861      C1862   1.412       .  A
C1862      C1870   1.404       .  A
C1863      C1872   1.402       .  A
C1863      C1864   1.402       .  A
C1864      C1865   1.397       .  A
C1864      H1875   1.084       .  S
C1865      C1866   1.402       .  A
C1865      H1876   1.084       .  S
C1866      C1867   1.399       .  A
C1867      C1868   1.400       .  A
C1867      H1877   1.085       .  S
C1868      C1869   1.403       .  A
C1869      H1878   1.084       .  S
C1870      C1871   1.405       .  A
C1870      H1879   1.085       .  S
C1871      C1872   1.400       .  A
C1872      H1880   1.085       .  S
C1881      C1882   1.403       .  A
C1881      C1886   1.405       .  A
C1881      H1897   1.084       .  S
C1882      C1883   1.405       .  A
C1882      H1898   1.084       .  S
C1883      C1893   1.409       .  A
C1883      C1884   1.412       .  A
C1884      C1890   1.412       .  A
C1884      C1885   1.416       .  A
C1885      C1887   1.410       .  A
C1885      C1886   1.413       .  A
C1886      C1894   1.411       .  A
C1887      C1896   1.403       .  A
C1887      C1888   1.404       .  A
C1888      C1889   1.399       .  A
C1888      H1899   1.083       .  S
C1889      C1890   1.403       .  A
C1889      H1900   1.084       .  S
C1890      C1891   1.404       .  A
C1891      C1892   1.407       .  A
C1891      H1901   1.085       .  S
C1892      C1893   1.409       .  A
C1893      H1902   1.084       .  S
C1894      C1895   1.410       .  A
C1894      H1903   1.084       .  S
C1895      C1896   1.409       .  A
C1896      H1904   1.084       .  S
C1905      C1906   1.400       .  A
C1905      C1910   1.404       .  A
C1905      H1921   1.083       .  S
C1906      C1907   1.404       .  A
C1906      H1922   1.085       .  S
C1907      C1917   1.406       .  A
C1907      C1908   1.412       .  A
C1908      C1914   1.412       .  A
C1908      C1909   1.417       .  A
C1909      C1911   1.412       .  A
C1909      C1910   1.411       .  A
C1910      C1918   1.406       .  A
C1911      C1920   1.410       .  A
C1911      C1912   1.405       .  A
C1912      C1913   1.402       .  A
C1912      H1923   1.084       .  S
C1913      C1914   1.405       .  A
C1913      H1924   1.084       .  S
C1914      C1915   1.408       .  A
C1915      C1916   1.409       .  A
C1915      H1925   1.084       .  S
C1916      C1917   1.408       .  A
C1917      H1926   1.086       .  S
C1918      C1919   1.408       .  A
C1918      H1927   1.084       .  S
C1919      C1920   1.410       .  A
C1920      H1928   1.084       .  S
C1929      C1930   1.399       .  A
C1929      C1934   1.403       .  A
C1929      H1945   1.084       .  S
C1930      C1931   1.404       .  A
C1930      H1946   1.083       .  S
C1931      C1941   1.402       .  A
C1931      C1932   1.412       .  A
C1932      C1938   1.412       .  A
C1932      C1933   1.408       .  A
C1933      C1935   1.412       .  A
C1933      C1934   1.414       .  A
C1934      C1942   1.403       .  A
C1935      C1944   1.395       .  A
C1935      C1936   1.402       .  A
C1936      C1937   1.395       .  A
C1936      H1947   1.084       .  S
C1937      C1938   1.402       .  A
C1937      H1948   1.083       .  S
C1938      C1939   1.396       .  A
C1939      C1940   1.402       .  A
C1939      H1949   1.085       .  S
C1940      C1941   1.404       .  A
C1941      H1950   1.084       .  S
C1942      C1943   1.400       .  A
C1942      H1951   1.085       .  S
C1943      C1944   1.400       .  A
C1944      H1952   1.086       .  S
C1953      C1954   1.400       .  A
C1953      C1958   1.404       .  A
C1953      H1969   1.083       .  S
C1954      C1955   1.404       .  A
C1954      H1970   1.084       .  S
C1955      C1965   1.406       .  A
C1955      C1956   1.412       .  A
C1956      C1962   1.412       .  A
C1956      C1957   1.417       .  A
C1957      C1959   1.412       .  A
C1957      C1958   1.411       .  A
C1958      C1966   1.406       .  A
C1959      C1968   1.411       .  A
C1959      C1960   1.405       .  A
C1960      C1961   1.403       .  A
C1960      H1971   1.084       .  S
C1961      C1962   1.405       .  A
C1961      H1972   1.083       .  S
C1962      C1963   1.409       .  A
C1963      C1964   1.408       .  A
C1963      H1973   1.084       .  S
C1964      C1965   1.407       .  A
C1965      H1974   1.085       .  S
C1966      C1967   1.410       .  A
C1966      H1975   1.084       .  S
C1967      C1968   1.410       .  A
C1968      H1976   1.084       .  S
C1977      C1978   1.396       .  A
C1977      C1982   1.402       .  A
C1977      H1993   1.084       .  S
C1978      C1979   1.402       .  A
C1978      H1994   1.083       .  S
C1979      C1989   1.398       .  A
C1979      C1980   1.410       .  A
C1980      C1986   1.414       .  A
C1980      C1981   1.417       .  A
C1981      C1983   1.412       .  A
C1981      C1982   1.411       .  A
C1982      C1990   1.401       .  A
C1983      C1992   1.416       .  A
C1983      C1984   1.407       .  A
C1984      C1985   1.407       .  A
C1984      H1995   1.083       .  S
C1985      C1986   1.406       .  A
C1985      H1996   1.083       .  S
C1986      C1987   1.417       .  A
C1987      C1988   1.410       .  A
C1987      H1997   1.084       .  S
C1988      C1989   1.404       .  A
C1989      H1998   1.085       .  S
C1990      C1991   1.407       .  A
C1990      H1999   1.085       .  S
C1991      C1992   1.413       .  A
C1992      H2000   1.083       .  S
C2001      C2002   1.401       .  A
C2001      C2006   1.405       .  A
C2001      H2017   1.084       .  S
C2002      C2003   1.404       .  A
C2002      H2018   1.083       .  S
C2003      C2013   1.408       .  A
C2003      C2004   1.412       .  A
C2004      C2010   1.411       .  A
C2004      C2005   1.418       .  A
C2005      C2007   1.413       .  A
C2005      C2006   1.411       .  A
C2006      C2014   1.407       .  A
C2007      C2016   1.412       .  A
C2007      C2008   1.405       .  A
C2008      C2009   1.403       .  A
C2008      H2019   1.084       .  S
C2009      C2010   1.405       .  A
C2009      H2020   1.084       .  S
C2010      C2011   1.410       .  A
C2011      C2012   1.410       .  A
C2011      H2021   1.084       .  S
C2012      C2013   1.410       .  A
C2013      H2022   1.084       .  S
C2014      C2015   1.409       .  A
C2014      H2023   1.084       .  S
C2015      C2016   1.409       .  A
C2016      H2024   1.084       .  S
C2025      C2026   1.401       .  A
C2025      C2030   1.405       .  A
C2025      H2041   1.083   1_556  S
C2026      C2027   1.404       .  A
C2026      H2042   1.084       .  S
C2027      C2037   1.406       .  A
C2027      C2028   1.414       .  A
C2028      C2034   1.412       .  A
C2028      C2029   1.412       .  A
C2029      C2031   1.414       .  A
C2029      C2030   1.412       .  A
C2030      C2038   1.405       .  A
C2031      C2040   1.402       .  A
C2031      C2032   1.402       .  A
C2032      C2033   1.396       .  A
C2032      H2043   1.085       .  S
C2033      C2034   1.402       .  A
C2033      H2044   1.087       .  S
C2034      C2035   1.398       .  A
C2035      C2036   1.400       .  A
C2035      H2045   1.088       .  S
C2036      C2037   1.404       .  A
C2037      H2046   1.085       .  S
C2038      C2039   1.406       .  A
C2038      H2047   1.084   1_556  S
C2039      C2040   1.400       .  A
C2040      H2048   1.089       .  S
C2049      C2050   1.396       .  A
C2049      C2054   1.402       .  A
C2049      H2065   1.083       .  S
C2050      C2051   1.402       .  A
C2050      H2066   1.084       .  S
C2051      C2061   1.399       .  A
C2051      C2052   1.411       .  A
C2052      C2058   1.412       .  A
C2052      C2053   1.411       .  A
C2053      C2055   1.412       .  A
C2053      C2054   1.411       .  A
C2054      C2062   1.399       .  A
C2055      C2064   1.406       .  A
C2055      C2056   1.404       .  A
C2056      C2057   1.401       .  A
C2056      H2067   1.084       .  S
C2057      C2058   1.404       .  A
C2057      H2068   1.083       .  S
C2058      C2059   1.406       .  A
C2059      C2060   1.407       .  A
C2059      H2069   1.084       .  S
C2060      C2061   1.405       .  A
C2061      H2070   1.085       .  S
C2062      C2063   1.405       .  A
C2062      H2071   1.084       .  S
C2063      C2064   1.407       .  A
C2064      H2072   1.084       .  S
C2073      C2074   1.400       .  A
C2073      C2078   1.403       .  A
C2073      H2089   1.085       .  S
C2074      C2075   1.404       .  A
C2074      H2090   1.083       .  S
C2075      C2085   1.405       .  A
C2075      C2076   1.412       .  A
C2076      C2082   1.412       .  A
C2076      C2077   1.412       .  A
C2077      C2079   1.411       .  A
C2077      C2078   1.412       .  A
C2078      C2086   1.404       .  A
C2079      C2088   1.402       .  A
C2079      C2080   1.404       .  A
C2080      C2081   1.399       .  A
C2080      H2091   1.082       .  S
C2081      C2082   1.403       .  A
C2081      H2092   1.085       .  S
C2082      C2083   1.403       .  A
C2083      C2084   1.405       .  A
C2083      H2093   1.087       .  S
C2084      C2085   1.406       .  A
C2085      H2094   1.084       .  S
C2086      C2087   1.406       .  A
C2086      H2095   1.085       .  S
C2087      C2088   1.407       .  A
C2088      H2096   1.083       .  S
C2097      C2098   1.398       .  A
C2097      C2102   1.403       .  A
C2097      H2113   1.084       .  S
C2098      C2099   1.403       .  A
C2098      H2114   1.084       .  S
C2099      C2109   1.398       .  A
C2099      C2100   1.410       .  A
C2100      C2106   1.414       .  A
C2100      C2101   1.410       .  A
C2101      C2103   1.411       .  A
C2101      C2102   1.413       .  A
C2102      C2110   1.403       .  A
C2103      C2112   1.401       .  A
C2103      C2104   1.404       .  A
C2104      C2105   1.399       .  A
C2104      H2115   1.083       .  S
C2105      C2106   1.403       .  A
C2105      H2116   1.083       .  S
C2106      C2107   1.404       .  A
C2107      C2108   1.403       .  A
C2107      H2117   1.084       .  S
C2108      C2109   1.405       .  A
C2109      H2118   1.085       .  S
C2110      C2111   1.406       .  A
C2110      H2119   1.085       .  S
C2111      C2112   1.405       .  A
C2112      H2120   1.084       .  S
C2121      C2122   1.401       .  A
C2121      C2126   1.404       .  A
C2121      H2137   1.084       .  S
C2122      C2123   1.405       .  A
C2122      H2138   1.084       .  S
C2123      C2133   1.404       .  A
C2123      C2124   1.409       .  A
C2124      C2130   1.413       .  A
C2124      C2125   1.413       .  A
C2125      C2127   1.409       .  A
C2125      C2126   1.413       .  A
C2126      C2134   1.407       .  A
C2127      C2136   1.400       .  A
C2127      C2128   1.404       .  A
C2128      C2129   1.398       .  A
C2128      H2139   1.084       .  S
C2129      C2130   1.403       .  A
C2129      H2140   1.084       .  S
C2130      C2131   1.404       .  A
C2131      C2132   1.406       .  A
C2131      H2141   1.084       .  S
C2132      C2133   1.411       .  A
C2133      H2142   1.085       .  S
C2134      C2135   1.407       .  A
C2134      H2143   1.085       .  S
C2135      C2136   1.408       .  A
C2136      H2144   1.084       .  S
C2145      C2146   1.400       .  A
C2145      C2150   1.404       .  A
C2145      H2161   1.083       .  S
C2146      C2147   1.404       .  A
C2146      H2162   1.083       .  S
C2147      C2157   1.404       .  A
C2147      C2148   1.414       .  A
C2148      C2154   1.410       .  A
C2148      C2149   1.407       .  A
C2149      C2151   1.413       .  A
C2149      C2150   1.412       .  A
C2150      C2158   1.402       .  A
C2151      C2160   1.395       .  A
C2151      C2152   1.401       .  A
C2152      C2153   1.394       .  A
C2152      H2163   1.083       .  S
C2153      C2154   1.402       .  A
C2153      H2164   1.084       .  S
C2154      C2155   1.393       .  A
C2155      C2156   1.401       .  A
C2155      H2165   1.085       .  S
C2156      C2157   1.404       .  A
C2157      H2166   1.084       .  S
C2158      C2159   1.402       .  A
C2158      H2167   1.084       .  S
C2159      C2160   1.397       .  A
C2160      H2168   1.085       .  S
C2169      C2170   1.402       .  A
C2169      C2174   1.404       .  A
C2169      H2185   1.083       .  S
C2170      C2171   1.405       .  A
C2170      H2186   1.083       .  S
C2171      C2181   1.406       .  A
C2171      C2172   1.413       .  A
C2172      C2178   1.412       .  A
C2172      C2173   1.406       .  A
C2173      C2175   1.409       .  A
C2173      C2174   1.413       .  A
C2174      C2182   1.406       .  A
C2175      C2184   1.387       .  A
C2175      C2176   1.401       .  A
C2176      C2177   1.391       .  A
C2176      H2187   1.084       .  S
C2177      C2178   1.400       .  A
C2177      H2188   1.084       .  S
C2178      C2179   1.389       .  A
C2179      C2180   1.396       .  A
C2179      H2189   1.084       .  S
C2180      C2181   1.403       .  A
C2181      H2190   1.084       .  S
C2182      C2183   1.406       .  A
C2182      H2191   1.084       .  S
C2183      C2184   1.405       .  A
C2184      H2192   1.084       .  S
C2193      C2194   1.393       .  A
C2193      C2198   1.401       .  A
C2193      H2209   1.084       .  S
C2194      C2195   1.401       .  A
C2194      H2210   1.083       .  S
C2195      C2205   1.394       .  A
C2195      C2196   1.409       .  A
C2196      C2202   1.413   1_556  A
C2196      C2197   1.414   1_556  A
C2197      C2199   1.412       .  A
C2197      C2198   1.410   1_554  A
C2198      C2206   1.394   1_556  A
C2199      C2208   1.414       .  A
C2199      C2200   1.407       .  A
C2200      C2201   1.406       .  A
C2200      H2211   1.083       .  S
C2201      C2202   1.406       .  A
C2201      H2212   1.084       .  S
C2202      C2203   1.415       .  A
C2203      C2204   1.410   1_554  A
C2203      H2213   1.084       .  S
C2204      C2205   1.407       .  A
C2205      H2214   1.084       .  S
C2206      C2207   1.405       .  A
C2206      H2215   1.085   1_554  S
C2207      C2208   1.413       .  A
C2208      H2216   1.083       .  S
C2217      C2218   1.401       .  A
C2217      C2222   1.404       .  A
C2217      H2233   1.083       .  S
C2218      C2219   1.404       .  A
C2218      H2234   1.084       .  S
C2219      C2229   1.406       .  A
C2219      C2220   1.413       .  A
C2220      C2226   1.411       .  A
C2220      C2221   1.414       .  A
C2221      C2223   1.412       .  A
C2221      C2222   1.411       .  A
C2222      C2230   1.405       .  A
C2223      C2232   1.405       .  A
C2223      C2224   1.404       .  A
C2224      C2225   1.400       .  A
C2224      H2235   1.083       .  S
C2225      C2226   1.404       .  A
C2225      H2236   1.083       .  S
C2226      C2227   1.403       .  A
C2227      C2228   1.404       .  A
C2227      H2237   1.084       .  S
C2228      C2229   1.404       .  A
C2229      H2238   1.085       .  S
C2230      C2231   1.408       .  A
C2230      H2239   1.084       .  S
C2231      C2232   1.407       .  A
C2232      H2240   1.084       .  S
C2241      C2242   1.397       .  A
C2241      C2246   1.403       .  A
C2241      H2257   1.084       .  S
C2242      C2243   1.402       .  A
C2242      H2258   1.084       .  S
C2243      C2253   1.399       .  A
C2243      C2244   1.411       .  A
C2244      C2250   1.412       .  A
C2244      C2245   1.411       .  A
C2245      C2247   1.411       .  A
C2245      C2246   1.412       .  A
C2246      C2254   1.401       .  A
C2247      C2256   1.403       .  A
C2247      C2248   1.404       .  A
C2248      C2249   1.400       .  A
C2248      H2259   1.084       .  S
C2249      C2250   1.404       .  A
C2249      H2260   1.084       .  S
C2250      C2251   1.403       .  A
C2251      C2252   1.408       .  A
C2251      H2261   1.085       .  S
C2252      C2253   1.404       .  A
C2253      H2262   1.085       .  S
C2254      C2255   1.406       .  A
C2254      H2263   1.084       .  S
C2255      C2256   1.409       .  A
C2256      H2264   1.084       .  S
C2265      C2266   1.399       .  A
C2265      C2270   1.404       .  A
C2265      H2281   1.083       .  S
C2266      C2267   1.403       .  A
C2266      H2282   1.084       .  S
C2267      C2277   1.407       .  A
C2267      C2268   1.415       .  A
C2268      C2274   1.410       .  A
C2268      C2269   1.411       .  A
C2269      C2271   1.413       .  A
C2269      C2270   1.411       .  A
C2270      C2278   1.402       .  A
C2271      C2280   1.402       .  A
C2271      C2272   1.403       .  A
C2272      C2273   1.398       .  A
C2272      H2283   1.083       .  S
C2273      C2274   1.403       .  A
C2273      H2284   1.084       .  S
C2274      C2275   1.398       .  A
C2275      C2276   1.404       .  A
C2275      H2285   1.085       .  S
C2276      C2277   1.401       .  A
C2277      H2286   1.085       .  S
C2278      C2279   1.406       .  A
C2278      H2287   1.084       .  S
C2279      C2280   1.406       .  A
C2280      H2288   1.083       .  S
C2289      C2290   1.401       .  A
C2289      C2294   1.404       .  A
C2289      H2305   1.084       .  S
C2290      C2291   1.404       .  A
C2290      H2306   1.084       .  S
C2291      C2301   1.405       .  A
C2291      C2292   1.411       .  A
C2292      C2298   1.412       .  A
C2292      C2293   1.411       .  A
C2293      C2295   1.410       .  A
C2293      C2294   1.413       .  A
C2294      C2302   1.407       .  A
C2295      C2304   1.398       .  A
C2295      C2296   1.403       .  A
C2296      C2297   1.397       .  A
C2296      H2307   1.084       .  S
C2297      C2298   1.402       .  A
C2297      H2308   1.083       .  S
C2298      C2299   1.400       .  A
C2299      C2300   1.405       .  A
C2299      H2309   1.084       .  S
C2300      C2301   1.407       .  A
C2301      H2310   1.085       .  S
C2302      C2303   1.406       .  A
C2302      H2311   1.085       .  S
C2303      C2304   1.406       .  A
C2304      H2312   1.084       .  S
C2313      C2314   1.398       .  A
C2313      C2318   1.403       .  A
C2313      H2329   1.084       .  S
C2314      C2315   1.403       .  A
C2314      H2330   1.084       .  S
C2315      C2325   1.404       .  A
C2315      C2316   1.414       .  A
C2316      C2322   1.412       .  A
C2316      C2317   1.411       .  A
C2317      C2319   1.414       .  A
C2317      C2318   1.412       .  A
C2318      C2326   1.401       .  A
C2319      C2328   1.403       .  A
C2319      C2320   1.403       .  A
C2320      C2321   1.398       .  A
C2320      H2331   1.083       .  S
C2321      C2322   1.403       .  A
C2321      H2332   1.084       .  S
C2322      C2323   1.401       .  A
C2323      C2324   1.403       .  A
C2323      H2333   1.085       .  S
C2324      C2325   1.401       .  A
C2325      H2334   1.085       .  S
C2326      C2327   1.402       .  A
C2326      H2335   1.085       .  S
C2327      C2328   1.401       .  A
C2328      H2336   1.084       .  S
C2337      C2338   1.394       .  A
C2337      C2342   1.402       .  A
C2337      H2353   1.084       .  S
C2338      C2339   1.402       .  A
C2338      H2354   1.083       .  S
C2339      C2349   1.396       .  A
C2339      C2340   1.411       .  A
C2340      C2346   1.413       .  A
C2340      C2341   1.411       .  A
C2341      C2343   1.413       .  A
C2341      C2342   1.409       .  A
C2342      C2350   1.394       .  A
C2343      C2352   1.410       .  A
C2343      C2344   1.405       .  A
C2344      C2345   1.403       .  A
C2344      H2355   1.084       .  S
C2345      C2346   1.405       .  A
C2345      H2356   1.084       .  S
C2346      C2347   1.409       .  A
C2347      C2348   1.406       .  A
C2347      H2357   1.084       .  S
C2348      C2349   1.404       .  A
C2349      H2358   1.084       .  S
C2350      C2351   1.407       .  A
C2350      H2359   1.084       .  S
C2351      C2352   1.407       .  A
C2352      H2360   1.084       .  S
C2361      C2362   1.396       .  A
C2361      C2366   1.403       .  A
C2361      H2377   1.084       .  S
C2362      C2363   1.402       .  A
C2362      H2378   1.084       .  S
C2363      C2373   1.400       .  A
C2363      C2364   1.412       .  A
C2364      C2370   1.410       .  A
C2364      C2365   1.411       .  A
C2365      C2367   1.413       .  A
C2365      C2366   1.410       .  A
C2366      C2374   1.398       .  A
C2367      C2376   1.407       .  A
C2367      C2368   1.404       .  A
C2368      C2369   1.401       .  A
C2368      H2379   1.084       .  S
C2369      C2370   1.404       .  A
C2369      H2380   1.084       .  S
C2370      C2371   1.404       .  A
C2371      C2372   1.409       .  A
C2371      H2381   1.084       .  S
C2372      C2373   1.405       .  A
C2373      H2382   1.084       .  S
C2374      C2375   1.407       .  A
C2374      H2383   1.084       .  S
C2375      C2376   1.409       .  A
C2376      H2384   1.085       .  S
C2385      C2386   1.399       .  A
C2385      C2390   1.403       .  A
C2385      H2401   1.084       .  S
C2386      C2387   1.404       .  A
C2386      H2402   1.083       .  S
C2387      C2397   1.401       .  A
C2387      C2388   1.410       .  A
C2388      C2394   1.415       .  A
C2388      C2389   1.414       .  A
C2389      C2391   1.411       .  A
C2389      C2390   1.413       .  A
C2390      C2398   1.405       .  A
C2391      C2400   1.404       .  A
C2391      C2392   1.404       .  A
C2392      C2393   1.400       .  A
C2392      H2403   1.083       .  S
C2393      C2394   1.403       .  A
C2393      H2404   1.084       .  S
C2394      C2395   1.408       .  A
C2395      C2396   1.402       .  A
C2395      H2405   1.085       .  S
C2396      C2397   1.406       .  A
C2397      H2406   1.085       .  S
C2398      C2399   1.406       .  A
C2398      H2407   1.085       .  S
C2399      C2400   1.407       .  A
C2400      H2408   1.084       .  S
C2409      C2410   1.400       .  A
C2409      C2414   1.404       .  A
C2409      H2425   1.084   1_556  S
C2410      C2411   1.404       .  A
C2410      H2426   1.082       .  S
C2411      C2421   1.404       .  A
C2411      C2412   1.411       .  A
C2412      C2418   1.413       .  A
C2412      C2413   1.414       .  A
C2413      C2415   1.412       .  A
C2413      C2414   1.412       .  A
C2414      C2422   1.405       .  A
C2415      C2424   1.405       .  A
C2415      C2416   1.404       .  A
C2416      C2417   1.400       .  A
C2416      H2427   1.083       .  S
C2417      C2418   1.404       .  A
C2417      H2428   1.084       .  S
C2418      C2419   1.407       .  A
C2419      C2420   1.406       .  A
C2419      H2429   1.085       .  S
C2420      C2421   1.407       .  A
C2421      H2430   1.084       .  S
C2422      C2423   1.406       .  A
C2422      H2431   1.085       .  S
C2423      C2424   1.404       .  A
C2424      H2432   1.084       .  S
C2433      C2434   1.400       .  A
C2433      C2438   1.404       .  A
C2433      H2449   1.083       .  S
C2434      C2435   1.403       .  A
C2434      H2450   1.084       .  S
C2435      C2445   1.404   1_554  A
C2435      C2436   1.413       .  A
C2436      C2442   1.410       .  A
C2436      C2437   1.409       .  A
C2437      C2439   1.412       .  A
C2437      C2438   1.411       .  A
C2438      C2446   1.403       .  A
C2439      C2448   1.398       .  A
C2439      C2440   1.402       .  A
C2440      C2441   1.396       .  A
C2440      H2451   1.084       .  S
C2441      C2442   1.402       .  A
C2441      H2452   1.083   1_554  S
C2442      C2443   1.396   1_554  A
C2443      C2444   1.404       .  A
C2443      H2453   1.084       .  S
C2444      C2445   1.404       .  A
C2445      H2454   1.085       .  S
C2446      C2447   1.406       .  A
C2446      H2455   1.084       .  S
C2447      C2448   1.404       .  A
C2448      H2456   1.085       .  S
C2457      C2458   1.398       .  A
C2457      C2462   1.403       .  A
C2457      H2473   1.084       .  S
C2458      C2459   1.403       .  A
C2458      H2474   1.083       .  S
C2459      C2469   1.401       .  A
C2459      C2460   1.412       .  A
C2460      C2466   1.412       .  A
C2460      C2461   1.408       .  A
C2461      C2463   1.411       .  A
C2461      C2462   1.412       .  A
C2462      C2470   1.401       .  A
C2463      C2472   1.397       .  A
C2463      C2464   1.403       .  A
C2464      C2465   1.397       .  A
C2464      H2475   1.083       .  S
C2465      C2466   1.403       .  A
C2465      H2476   1.084       .  S
C2466      C2467   1.399       .  A
C2467      C2468   1.405       .  A
C2467      H2477   1.085       .  S
C2468      C2469   1.403       .  A
C2469      H2478   1.084       .  S
C2470      C2471   1.404       .  A
C2470      H2479   1.085       .  S
C2471      C2472   1.405       .  A
C2472      H2480   1.084       .  S
C2481      C2482   1.399       .  A
C2481      C2486   1.403       .  A
C2481      H2497   1.084       .  S
C2482      C2483   1.403       .  A
C2482      H2498   1.084       .  S
C2483      C2493   1.404       .  A
C2483      C2484   1.413       .  A
C2484      C2490   1.410       .  A
C2484      C2485   1.411       .  A
C2485      C2487   1.413       .  A
C2485      C2486   1.411       .  A
C2486      C2494   1.401       .  A
C2487      C2496   1.403       .  A
C2487      C2488   1.403       .  A
C2488      C2489   1.399       .  A
C2488      H2499   1.083       .  S
C2489      C2490   1.404       .  A
C2489      H2500   1.084       .  S
C2490      C2491   1.400       .  A
C2491      C2492   1.409       .  A
C2491      H2501   1.084       .  S
C2492      C2493   1.404       .  A
C2493      H2502   1.084       .  S
C2494      C2495   1.405       .  A
C2494      H2503   1.085       .  S
C2495      C2496   1.406       .  A
C2496      H2504   1.084       .  S
C2505      C2506   1.398       .  A
C2505      C2510   1.403       .  A
C2505      H2521   1.084       .  S
C2506      C2507   1.403       .  A
C2506      H2522   1.083       .  S
C2507      C2517   1.401       .  A
C2507      C2508   1.413       .  A
C2508      C2514   1.411       .  A
C2508      C2509   1.410       .  A
C2509      C2511   1.412       .  A
C2509      C2510   1.411       .  A
C2510      C2518   1.399       .  A
C2511      C2520   1.403       .  A
C2511      C2512   1.403       .  A
C2512      C2513   1.399       .  A
C2512      H2523   1.084       .  S
C2513      C2514   1.403       .  A
C2513      H2524   1.083       .  S
C2514      C2515   1.400       .  A
C2515      C2516   1.404       .  A
C2515      H2525   1.084       .  S
C2516      C2517   1.403       .  A
C2517      H2526   1.084       .  S
C2518      C2519   1.406       .  A
C2518      H2527   1.084       .  S
C2519      C2520   1.406       .  A
C2520      H2528   1.085       .  S
C2529      C2530   1.399       .  A
C2529      C2534   1.403       .  A
C2529      H2545   1.084       .  S
C2530      C2531   1.403       .  A
C2530      H2546   1.083       .  S
C2531      C2541   1.403   1_556  A
C2531      C2532   1.413       .  A
C2532      C2538   1.411   1_556  A
C2532      C2533   1.410       .  A
C2533      C2535   1.412       .  A
C2533      C2534   1.411       .  A
C2534      C2542   1.401       .  A
C2535      C2544   1.400       .  A
C2535      C2536   1.403       .  A
C2536      C2537   1.398   1_556  A
C2536      H2547   1.083       .  S
C2537      C2538   1.403       .  A
C2537      H2548   1.084       .  S
C2538      C2539   1.399       .  A
C2539      C2540   1.406       .  A
C2539      H2549   1.085       .  S
C2540      C2541   1.404       .  A
C2541      H2550   1.084       .  S
C2542      C2543   1.405       .  A
C2542      H2551   1.084       .  S
C2543      C2544   1.405       .  A
C2544      H2552   1.084       .  S
C2553      C2554   1.405       .  A
C2553      C2558   1.406       .  A
C2553      H2569   1.084       .  S
C2554      C2555   1.405       .  A
C2554      H2570   1.083       .  S
C2555      C2565   1.414       .  A
C2555      C2556   1.414       .  A
C2556      C2562   1.408       .  A
C2556      C2557   1.414       .  A
C2557      C2559   1.411       .  A
C2557      C2558   1.412       .  A
C2558      C2566   1.413       .  A
C2559      C2568   1.398       .  A
C2559      C2560   1.402       .  A
C2560      C2561   1.395       .  A
C2560      H2571   1.084       .  S
C2561      C2562   1.403       .  A
C2561      H2572   1.084       .  S
C2562      C2563   1.395       .  A
C2563      C2564   1.409       .  A
C2563      H2573   1.084       .  S
C2564      C2565   1.408       .  A
C2565      H2574   1.084       .  S
C2566      C2567   1.408       .  A
C2566      H2575   1.084       .  S
C2567      C2568   1.406       .  A
C2568      H2576   1.085       .  S
C2577      C2578   1.399       .  A
C2577      C2582   1.403       .  A
C2577      H2593   1.084       .  S
C2578      C2579   1.403       .  A
C2578      H2594   1.084       .  S
C2579      C2589   1.403       .  A
C2579      C2580   1.412       .  A
C2580      C2586   1.411       .  A
C2580      C2581   1.411       .  A
C2581      C2583   1.412       .  A
C2581      C2582   1.411       .  A
C2582      C2590   1.402       .  A
C2583      C2592   1.402       .  A
C2583      C2584   1.403       .  A
C2584      C2585   1.399       .  A
C2584      H2595   1.083       .  S
C2585      C2586   1.403       .  A
C2585      H2596   1.083       .  S
C2586      C2587   1.402       .  A
C2587      C2588   1.406       .  A
C2587      H2597   1.084       .  S
C2588      C2589   1.406       .  A
C2589      H2598   1.085       .  S
C2590      C2591   1.406       .  A
C2590      H2599   1.085       .  S
C2591      C2592   1.406       .  A
C2592      H2600   1.084       .  S
C2601      C2602   1.400       .  A
C2601      C2606   1.404       .  A
C2601      H2617   1.083       .  S
C2602      C2603   1.404       .  A
C2602      H2618   1.085       .  S
C2603      C2613   1.405       .  A
C2603      C2604   1.414       .  A
C2604      C2610   1.412       .  A
C2604      C2605   1.413       .  A
C2605      C2607   1.414       .  A
C2605      C2606   1.412       .  A
C2606      C2614   1.404       .  A
C2607      C2616   1.403       .  A
C2607      C2608   1.403       .  A
C2608      C2609   1.398       .  A
C2608      H2619   1.084       .  S
C2609      C2610   1.403       .  A
C2609      H2620   1.084       .  S
C2610      C2611   1.401       .  A
C2611      C2612   1.402       .  A
C2611      H2621   1.085   1_556  S
C2612      C2613   1.403       .  A
C2613      H2622   1.085       .  S
C2614      C2615   1.404       .  A
C2614      H2623   1.085       .  S
C2615      C2616   1.401       .  A
C2616      H2624   1.085       .  S
C2625      C2626   1.400       .  A
C2625      C2630   1.403       .  A
C2625      H2641   1.084       .  S
C2626      C2627   1.404       .  A
C2626      H2642   1.084       .  S
C2627      C2637   1.402       .  A
C2627      C2628   1.411       .  A
C2628      C2634   1.413       .  A
C2628      C2629   1.410       .  A
C2629      C2631   1.410       .  A
C2629      C2630   1.413       .  A
C2630      C2638   1.405       .  A
C2631      C2640   1.396       .  A
C2631      C2632   1.403       .  A
C2632      C2633   1.396       .  A
C2632      H2643   1.084       .  S
C2633      C2634   1.402       .  A
C2633      H2644   1.083       .  S
C2634      C2635   1.399       .  A
C2635      C2636   1.404       .  A
C2635      H2645   1.084       .  S
C2636      C2637   1.407       .  A
C2637      H2646   1.085       .  S
C2638      C2639   1.405       .  A
C2638      H2647   1.084       .  S
C2639      C2640   1.406       .  A
C2640      H2648   1.085       .  S
C2649      C2650   1.405       .  A
C2649      C2654   1.406       .  A
C2649      H2665   1.083       .  S
C2650      C2651   1.406       .  A
C2650      H2666   1.084       .  S
C2651      C2661   1.411       .  A
C2651      C2652   1.412       .  A
C2652      C2658   1.411       .  A
C2652      C2653   1.412       .  A
C2653      C2655   1.409       .  A
C2653      C2654   1.413       .  A
C2654      C2662   1.413       .  A
C2655      C2664   1.392       .  A
C2655      C2656   1.401       .  A
C2656      C2657   1.392       .  A
C2656      H2667   1.084       .  S
C2657      C2658   1.400       .  A
C2657      H2668   1.083       .  S
C2658      C2659   1.394       .  A
C2659      C2660   1.402       .  A
C2659      H2669   1.084       .  S
C2660      C2661   1.409       .  A
C2661      H2670   1.084       .  S
C2662      C2663   1.410       .  A
C2662      H2671   1.084       .  S
C2663      C2664   1.405       .  A
C2664      H2672   1.085       .  S
C2673      C2674   1.402       .  A
C2673      C2678   1.405       .  A
C2673      H2689   1.083   1_556  S
C2674      C2675   1.404       .  A
C2674      H2690   1.084       .  S
C2675      C2685   1.408       .  A
C2675      C2676   1.414       .  A
C2676      C2682   1.411       .  A
C2676      C2677   1.412       .  A
C2677      C2679   1.412       .  A
C2677      C2678   1.412       .  A
C2678      C2686   1.406       .  A
C2679      C2688   1.399       .  A
C2679      C2680   1.403       .  A
C2680      C2681   1.397       .  A
C2680      H2691   1.084       .  S
C2681      C2682   1.403       .  A
C2681      H2692   1.084       .  S
C2682      C2683   1.397       .  A
C2683      C2684   1.404       .  A
C2683      H2693   1.086       .  S
C2684      C2685   1.405       .  A
C2685      H2694   1.084       .  S
C2686      C2687   1.406       .  A
C2686      H2695   1.084   1_556  S
C2687      C2688   1.405       .  A
C2688      H2696   1.085       .  S
C2697      C2698   1.395       .  A
C2697      C2702   1.402       .  A
C2697      H2713   1.084       .  S
C2698      C2699   1.402       .  A
C2698      H2714   1.084       .  S
C2699      C2709   1.394       .  A
C2699      C2700   1.411       .  A
C2700      C2706   1.415       .  A
C2700      C2701   1.408       .  A
C2701      C2703   1.412       .  A
C2701      C2702   1.414       .  A
C2702      C2710   1.397       .  A
C2703      C2712   1.400       .  A
C2703      C2704   1.403       .  A
C2704      C2705   1.398       .  A
C2704      H2715   1.084       .  S
C2705      C2706   1.403       .  A
C2705      H2716   1.083       .  S
C2706      C2707   1.403       .  A
C2707      C2708   1.400       .  A
C2707      H2717   1.084       .  S
C2708      C2709   1.400       .  A
C2709      H2718   1.084       .  S
C2710      C2711   1.399       .  A
C2710      H2719   1.084       .  S
C2711      C2712   1.401       .  A
C2712      H2720   1.085       .  S
C2721      C2722   1.397       .  A
C2721      C2726   1.403       .  A
C2721      H2737   1.084       .  S
C2722      C2723   1.403       .  A
C2722      H2738   1.083       .  S
C2723      C2733   1.400       .  A
C2723      C2724   1.410       .  A
C2724      C2730   1.413       .  A
C2724      C2725   1.413       .  A
C2725      C2727   1.412       .  A
C2725      C2726   1.411       .  A
C2726      C2734   1.401       .  A
C2727      C2736   1.407       .  A
C2727      C2728   1.405       .  A
C2728      C2729   1.402       .  A
C2728      H2739   1.084       .  S
C2729      C2730   1.404       .  A
C2729      H2740   1.084       .  S
C2730      C2731   1.409       .  A
C2731      C2732   1.407       .  A
C2731      H2741   1.085       .  S
C2732      C2733   1.406       .  A
C2733      H2742   1.083       .  S
C2734      C2735   1.407       .  A
C2734      H2743   1.084       .  S
C2735      C2736   1.409       .  A
C2736      H2744   1.084       .  S
C2745      C2746   1.401       .  A
C2745      C2750   1.404       .  A
C2745      H2761   1.084       .  S
C2746      C2747   1.404       .  A
C2746      H2762   1.083       .  S
C2747      C2757   1.406       .  A
C2747      C2748   1.413       .  A
C2748      C2754   1.412       .  A
C2748      C2749   1.411       .  A
C2749      C2751   1.411       .  A
C2749      C2750   1.412       .  A
C2750      C2758   1.405       .  A
C2751      C2760   1.399       .  A
C2751      C2752   1.403       .  A
C2752      C2753   1.396       .  A
C2752      H2763   1.083       .  S
C2753      C2754   1.402       .  A
C2753      H2764   1.083       .  S
C2754      C2755   1.399       .  A
C2755      C2756   1.401       .  A
C2755      H2765   1.085       .  S
C2756      C2757   1.403       .  A
C2757      H2766   1.084       .  S
C2758      C2759   1.407       .  A
C2758      H2767   1.084       .  S
C2759      C2760   1.406       .  A
C2760      H2768   1.084       .  S
C2769      C2770   1.402       .  A
C2769      C2774   1.405       .  A
C2769      H2785   1.083       .  S
C2770      C2771   1.405       .  A
C2770      H2786   1.084       .  S
C2771      C2781   1.406       .  A
C2771      C2772   1.412       .  A
C2772      C2778   1.410       .  A
C2772      C2773   1.408       .  A
C2773      C2775   1.410       .  A
C2773      C2774   1.412       .  A
C2774      C2782   1.407       .  A
C2775      C2784   1.392       .  A
C2775      C2776   1.401       .  A
C2776      C2777   1.393       .  A
C2776      H2787   1.084       .  S
C2777      C2778   1.401       .  A
C2777      H2788   1.084       .  S
C2778      C2779   1.392       .  A
C2779      C2780   1.404       .  A
C2779      H2789   1.085       .  S
C2780      C2781   1.407       .  A
C2781      H2790   1.084       .  S
C2782      C2783   1.408       .  A
C2782      H2791   1.084       .  S
C2783      C2784   1.405       .  A
C2784      H2792   1.085       .  S
C2793      C2794   1.398       .  A
C2793      C2798   1.403       .  A
C2793      H2809   1.084       .  S
C2794      C2795   1.404       .  A
C2794      H2810   1.084       .  S
C2795      C2805   1.400       .  A
C2795      C2796   1.412       .  A
C2796      C2802   1.413       .  A
C2796      C2797   1.409       .  A
C2797      C2799   1.412       .  A
C2797      C2798   1.414       .  A
C2798      C2806   1.402       .  A
C2799      C2808   1.398       .  A
C2799      C2800   1.402       .  A
C2800      C2801   1.396       .  A
C2800      H2811   1.084       .  S
C2801      C2802   1.402       .  A
C2801      H2812   1.083       .  S
C2802      C2803   1.399       .  A
C2803      C2804   1.400       .  A
C2803      H2813   1.084       .  S
C2804      C2805   1.404       .  A
C2805      H2814   1.086       .  S
C2806      C2807   1.402       .  A
C2806      H2815   1.085       .  S
C2807      C2808   1.399       .  A
C2808      H2816   1.085       .  S
C2817      C2818   1.401       .  A
C2817      C2822   1.404       .  A
C2817      H2833   1.083       .  S
C2818      C2819   1.404       .  A
C2818      H2834   1.083       .  S
C2819      C2829   1.408       .  A
C2819      C2820   1.413       .  A
C2820      C2826   1.410       .  A
C2820      C2821   1.414       .  A
C2821      C2823   1.413       .  A
C2821      C2822   1.412       .  A
C2822      C2830   1.406       .  A
C2823      C2832   1.403       .  A
C2823      C2824   1.403       .  A
C2824      C2825   1.399       .  A
C2824      H2835   1.083       .  S
C2825      C2826   1.404       .  A
C2825      H2836   1.084       .  S
C2826      C2827   1.402       .  A
C2827      C2828   1.410       .  A
C2827      H2837   1.084       .  S
C2828      C2829   1.408       .  A
C2829      H2838   1.084       .  S
C2830      C2831   1.404       .  A
C2830      H2839   1.084       .  S
C2831      C2832   1.402       .  A
C2832      H2840   1.084       .  S
C2841      C2842   1.397       .  A
C2841      C2846   1.402       .  A
C2841      H2857   1.084       .  S
C2842      C2843   1.403       .  A
C2842      H2858   1.084       .  S
C2843      C2853   1.400       .  A
C2843      C2844   1.410       .  A
C2844      C2850   1.412       .  A
C2844      C2845   1.413       .  A
C2845      C2847   1.411       .  A
C2845      C2846   1.412       .  A
C2846      C2854   1.402       .  A
C2847      C2856   1.406       .  A
C2847      C2848   1.405       .  A
C2848      C2849   1.401       .  A
C2848      H2859   1.084       .  S
C2849      C2850   1.404       .  A
C2849      H2860   1.084       .  S
C2850      C2851   1.407       .  A
C2851      C2852   1.408       .  A
C2851      H2861   1.084       .  S
C2852      C2853   1.407       .  A
C2853      H2862   1.085       .  S
C2854      C2855   1.406       .  A
C2854      H2863   1.084       .  S
C2855      C2856   1.411       .  A
C2856      H2864   1.085       .  S
C2865      C2866   1.398       .  A
C2865      C2870   1.403       .  A
C2865      H2881   1.084       .  S
C2866      C2867   1.403       .  A
C2866      H2882   1.083       .  S
C2867      C2877   1.401       .  A
C2867      C2868   1.412       .  A
C2868      C2874   1.412       .  A
C2868      C2869   1.410       .  A
C2869      C2871   1.413       .  A
C2869      C2870   1.411       .  A
C2870      C2878   1.399       .  A
C2871      C2880   1.404       .  A
C2871      C2872   1.403       .  A
C2872      C2873   1.399       .  A
C2872      H2883   1.084       .  S
C2873      C2874   1.404       .  A
C2873      H2884   1.083       .  S
C2874      C2875   1.403       .  A
C2875      C2876   1.406       .  A
C2875      H2885   1.084       .  S
C2876      C2877   1.405       .  A
C2877      H2886   1.084       .  S
C2878      C2879   1.406       .  A
C2878      H2887   1.085       .  S
C2879      C2880   1.404       .  A
C2880      H2888   1.084       .  S
C2889      C2890   1.397       .  A
C2889      C2894   1.402       .  A
C2889      H2905   1.084       .  S
C2890      C2891   1.403       .  A
C2890      H2906   1.083       .  S
C2891      C2901   1.400       .  A
C2891      C2892   1.413       .  A
C2892      C2898   1.411       .  A
C2892      C2893   1.405       .  A
C2893      C2895   1.412       .  A
C2893      C2894   1.412       .  A
C2894      C2902   1.398       .  A
C2895      C2904   1.396       .  A
C2895      C2896   1.402       .  A
C2896      C2897   1.395       .  A
C2896      H2907   1.084       .  S
C2897      C2898   1.402       .  A
C2897      H2908   1.083       .  S
C2898      C2899   1.395       .  A
C2899      C2900   1.402       .  A
C2899      H2909   1.085       .  S
C2900      C2901   1.402       .  A
C2901      H2910   1.084       .  S
C2902      C2903   1.403       .  A
C2902      H2911   1.085       .  S
C2903      C2904   1.403       .  A
C2904      H2912   1.085       .  S
C2913      C2914   1.396       .  A
C2913      C2918   1.402       .  A
C2913      H2929   1.083       .  S
C2914      C2915   1.402       .  A
C2914      H2930   1.084       .  S
C2915      C2925   1.401       .  A
C2915      C2916   1.411       .  A
C2916      C2922   1.411       .  A
C2916      C2917   1.416       .  A
C2917      C2919   1.414       .  A
C2917      C2918   1.409       .  A
C2918      C2926   1.398       .  A
C2919      C2928   1.416       .  A
C2919      C2920   1.406       .  A
C2920      C2921   1.406       .  A
C2920      H2931   1.083       .  S
C2921      C2922   1.407       .  A
C2921      H2932   1.083       .  S
C2922      C2923   1.414       .  A
C2923      C2924   1.412       .  A
C2923      H2933   1.083       .  S
C2924      C2925   1.407       .  A
C2925      H2934   1.085       .  S
C2926      C2927   1.407       .  A
C2926      H2935   1.084       .  S
C2927      C2928   1.410       .  A
C2928      H2936   1.084       .  S
C2937      C2938   1.396       .  A
C2937      C2942   1.402       .  A
C2937      H2953   1.084       .  S
C2938      C2939   1.402       .  A
C2938      H2954   1.084       .  S
C2939      C2949   1.398       .  A
C2939      C2940   1.412       .  A
C2940      C2946   1.414       .  A
C2940      C2941   1.411       .  A
C2941      C2943   1.413       .  A
C2941      C2942   1.412       .  A
C2942      C2950   1.398       .  A
C2943      C2952   1.405       .  A
C2943      C2944   1.404       .  A
C2944      C2945   1.401       .  A
C2944      H2955   1.084       .  S
C2945      C2946   1.404       .  A
C2945      H2956   1.083       .  S
C2946      C2947   1.408       .  A
C2947      C2948   1.404       .  A
C2947      H2957   1.084       .  S
C2948      C2949   1.401       .  A
C2949      H2958   1.086       .  S
C2950      C2951   1.403       .  A
C2950      H2959   1.085       .  S
C2951      C2952   1.405       .  A
C2952      H2960   1.085       .  S
C2961      C2962   1.396       .  A
C2961      C2966   1.402       .  A
C2961      H2977   1.084       .  S
C2962      C2963   1.403       .  A
C2962      H2978   1.084       .  S
C2963      C2973   1.399       .  A
C2963      C2964   1.411       .  A
C2964      C2970   1.412       .  A
C2964      C2965   1.412       .  A
C2965      C2967   1.412       .  A
C2965      C2966   1.411       .  A
C2966      C2974   1.399       .  A
C2967      C2976   1.406       .  A
C2967      C2968   1.405       .  A
C2968      C2969   1.402       .  A
C2968      H2979   1.084       .  S
C2969      C2970   1.405       .  A
C2969      H2980   1.084       .  S
C2970      C2971   1.407       .  A
C2971      C2972   1.409       .  A
C2971      H2981   1.085       .  S
C2972      C2973   1.406       .  A
C2973      H2982   1.084       .  S
C2974      C2975   1.405       .  A
C2974      H2983   1.085       .  S
C2975      C2976   1.408       .  A
C2976      H2984   1.085       .  S
C2985      C2986   1.400       .  A
C2985      C2990   1.404       .  A
C2985      H3001   1.083       .  S
C2986      C2987   1.404       .  A
C2986      H3002   1.083       .  S
C2987      C2997   1.406       .  A
C2987      C2988   1.411       .  A
C2988      C2994   1.412       .  A
C2988      C2989   1.415       .  A
C2989      C2991   1.412       .  A
C2989      C2990   1.412       .  A
C2990      C2998   1.405       .  A
C2991      C3000   1.407       .  A
C2991      C2992   1.404       .  A
C2992      C2993   1.401       .  A
C2992      H3003   1.084       .  S
C2993      C2994   1.404       .  A
C2993      H3004   1.084       .  S
C2994      C2995   1.407       .  A
C2995      C2996   1.409       .  A
C2995      H3005   1.084       .  S
C2996      C2997   1.409       .  A
C2997      H3006   1.084       .  S
C2998      C2999   1.407       .  A
C2998      H3007   1.084       .  S
C2999      C3000   1.407       .  A
C3000      H3008   1.085       .  S
