geometry optimzed in LAMMPS
_audit_creation_date              2020-12-01 
_audit_creation_method            'lammps2cif' 
_symmetry_space_group_name_H-M    'P1' 
_symmetry_Int_Tables_number       1 
_symmetry_cell_setting            triclinic 
loop_ 
_symmetry_equiv_pos_as_xyz 
  x,y,z 
_cell_length_a                    28.92283916 
_cell_length_b                    28.881208286144695 
_cell_length_c                    45.63612416194227 
_cell_angle_alpha                 90.271438277001 
_cell_angle_beta                  90.0495504130278 
_cell_angle_gamma                 90.15274221585254 
loop_ 
_atom_site_label 
_atom_site_type_symbol 
_atom_site_fract_x 
_atom_site_fract_y 
_atom_site_fract_z 
_atom_site_charge 
Fe1        Fe  0.11977414  0.02368379  0.65858873     1.65800
Fe2        Fe  0.03888545  0.10885468  0.65811734     1.73200
Fe3        Fe  0.07329071  0.06419542  0.72264248     1.54400
O4          O  0.06477785  0.99451303  0.72156522    -0.82100
O5          O  0.03750576  0.15726752  0.69137468    -0.80400
O6          O  0.09266527  0.96546669  0.67957908    -0.84600
O7          O  0.17154121  0.02928710  0.68904557    -0.79400
O8          O  0.00221895  0.07064444  0.72111086    -0.81200
O9          O  0.09829295  0.13944059  0.64169154    -0.83900
C10         C  0.17599091  0.04118311  0.71557775     0.96800
C11         C  0.07296318  0.96082337  0.70444373     1.04300
O12         O  0.07769512  0.06529402  0.67967615    -1.12900
O13         O  0.03175714  0.07074239  0.62021502    -0.75400
O14         O  0.07682058  0.00957424  0.62354322    -0.82000
O15         O  0.14278729  0.05653578  0.73069493    -0.79500
C16         C  0.04753945  0.03347945  0.60977756     0.95700
O17         O  0.14897435  0.08064160  0.63749189    -0.77500
O18         O  0.97919724  0.07817614  0.67461831    -0.82700
C19         C  0.05738718  0.16459700  0.71570040     0.98300
C20         C  0.97087770  0.06978097  0.70152514     1.04300
O21         O  0.08162479  0.13411303  0.72803799    -0.78300
C22         C  0.13800368  0.12334587  0.63469419     1.02600
Fe23       Fe  0.39745087  0.46415148  0.65343374     1.65800
Fe24       Fe  0.48252795  0.38290127  0.65447680     1.73200
Fe25       Fe  0.43797726  0.42507715  0.71825556     1.54400
O26         O  0.43833527  0.49623378  0.71785611    -0.82100
O27         O  0.48154819  0.33225277  0.68604494    -0.80400
O28         O  0.42726674  0.52300955  0.67235593    -0.84600
O29         O  0.34652424  0.46539402  0.68484386    -0.79400
O30         O  0.50893365  0.42770627  0.71925770    -0.81200
O31         O  0.42546877  0.35131779  0.63462684    -0.83900
C32         C  0.33752344  0.44838286  0.70967263     0.96800
C33         C  0.43804357  0.52900016  0.69928295     1.04300
O34         O  0.43930983  0.42390414  0.67524497    -1.12900
O35         O  0.49416490  0.42319161  0.61775803    -0.75400
O36         O  0.43745117  0.47371598  0.61685600    -0.78800
O37         O  0.36674492  0.42393358  0.72320485    -0.79500
C38         C  0.47251027  0.45546936  0.60526762     0.95700
O39         O  0.36832706  0.40467781  0.63509698    -0.77500
O40         O  0.53945411  0.41416011  0.67500236    -0.82700
C41         C  0.46268565  0.32417550  0.71050138     0.98300
C42         C  0.54317875  0.42694657  0.70178023     1.04300
O43         O  0.43846232  0.35419244  0.72365372    -0.78300
C44         C  0.38345895  0.36363705  0.63003302     1.02600
Fe45       Fe  0.52909629  0.60628394  0.34372764     1.65800
Fe46       Fe  0.61402446  0.52364331  0.34335060     1.73200
Fe47       Fe  0.54594369  0.53900925  0.28249879     1.54400
O48         O  0.47697137  0.53743121  0.29256727    -0.82100
O49         O  0.65688502  0.52707895  0.30735505    -0.80400
O50         O  0.46498783  0.57823148  0.33357304    -0.84600
O51         O  0.52715912  0.64864697  0.30743255    -0.79400
O52         O  0.54658012  0.46995437  0.29163526    -0.81200
O53         O  0.64399815  0.58523014  0.35737520    -0.83900
C54         C  0.53228204  0.64445127  0.27995293     0.96800
C55         C  0.45089058  0.55260026  0.31269994     1.04300
O56         O  0.56307662  0.55634704  0.32317345    -1.12900
O57         O  0.57848619  0.51582135  0.38241946    -0.75400
O58         O  0.52602253  0.57176338  0.38331728    -0.78800
O59         O  0.54127162  0.60616553  0.26762452    -0.79500
C60         C  0.54646196  0.53791174  0.39527027     0.95700
O61         O  0.58951013  0.63965453  0.35568010    -0.77500
O62         O  0.59038123  0.45816193  0.33114885    -0.82700
C63         C  0.65243989  0.53155978  0.27985510     0.98300
C64         C  0.56449966  0.44367189  0.31052645     1.04300
O65         O  0.61350410  0.53689129  0.26749155    -0.78300
C66         C  0.63099518  0.62708500  0.36012014     1.02600
Fe67       Fe  0.97538889  0.89300968  0.34887075     1.65800
Fe68       Fe  0.89116890  0.97526649  0.35008816     1.73200
Fe69       Fe  0.93739855  0.94153565  0.28562508     1.54400
O70         O  0.00760727  0.94912004  0.28787259    -0.82100
O71         O  0.84401788  0.97995835  0.31582232    -0.80400
O72         O  0.03465529  0.92325011  0.33078630    -0.84600
O73         O  0.97504828  0.84398426  0.31657837    -0.79400
O74         O  0.93204473  0.01277888  0.28845127    -0.81200
O75         O  0.85926313  0.91537658  0.36451602    -0.83900
C76         C  0.96291595  0.83936906  0.29017588     0.96800
C77         C  0.04042782  0.94296798  0.30600597     1.04300
O78         O  0.93496429  0.93637829  0.32834799    -1.12900
O79         O  0.92799885  0.98085237  0.38894169    -0.75400
O80         O  0.98614541  0.93212669  0.38574833    -0.78800
O81         O  0.94384468  0.87180528  0.27619856    -0.79500
C82         C  0.96394531  0.96264072  0.39955050     0.95700
O83         O  0.91615920  0.86200359  0.36646980    -0.77500
O84         O  0.92318388  0.03484779  0.33520740    -0.82700
C85         C  0.83742210  0.96097980  0.29102781     0.98300
C86         C  0.93172314  0.04370516  0.30843354     1.04300
O87         O  0.86724956  0.93455041  0.27966465    -0.78300
C88         C  0.87369156  0.87419617  0.36927575     1.02600
Fe89       Fe  0.89825014  0.52633029  0.84858211     1.65800
Fe90       Fe  0.98044312  0.61141475  0.84711014     1.73200
Fe91       Fe  0.94409351  0.56146326  0.78349070     1.54400
O92         O  0.94908992  0.49140986  0.78652478    -0.82100
O93         O  0.97708344  0.65954758  0.81429631    -0.80400
O94         O  0.92741302  0.46646438  0.83084002    -0.84600
O95         O  0.84736773  0.52584559  0.81710692    -0.79400
O96         O  0.01524421  0.56483045  0.78422669    -0.81200
O97         O  0.92143295  0.64126212  0.86530812    -0.83900
C98         C  0.84162461  0.53877315  0.79092393     0.96800
C99         C  0.94360235  0.45944157  0.80520784     1.04300
O100        O  0.94084977  0.56632913  0.82648934    -1.12900
O101        O  0.99231442  0.57312897  0.88424237    -0.75400
O102        O  0.93937761  0.51808497  0.88488311    -0.78800
O103        O  0.87386020  0.55680194  0.77614496    -0.79500
C104        C  0.97314964  0.53902706  0.89645621     0.95700
O105        O  0.86751522  0.58496435  0.86652003    -0.77500
O106        O  0.04068322  0.58329232  0.82906184    -0.82700
C107        C  0.95933754  0.66401482  0.78912860     0.98300
C108        C  0.04772446  0.57002061  0.80274087     1.04300
O109        O  0.93951704  0.63106552  0.77584142    -0.78300
C110        C  0.88027502  0.62699775  0.87046743     1.02600
Fe111      Fe  0.61649651  0.96569269  0.84739094     1.65800
Fe112      Fe  0.53487731  0.88062553  0.84495515     1.73200
Fe113      Fe  0.57896285  0.92462220  0.78176013     1.54400
O114        O  0.57890239  0.99609101  0.78205890    -0.82100
O115        O  0.53962854  0.82953470  0.81392207    -0.80400
O116        O  0.58624437  0.02315143  0.82787980    -0.84600
O117        O  0.66857738  0.96736140  0.81642559    -0.79400
O118        O  0.50833519  0.92714455  0.78016141    -0.81200
O119        O  0.59213314  0.85217558  0.86600579    -0.83900
C120        C  0.67837763  0.94873817  0.79202413     0.96800
C121        C  0.57736533  0.02896690  0.80072142     1.04300
O122        O  0.57672179  0.92349451  0.82482567    -1.12900
O123        O  0.51990531  0.92120477  0.88076391    -0.75400
O124        O  0.57399478  0.97477413  0.88352588    -0.78800
O125        O  0.64988800  0.92300365  0.77860517    -0.79500
C126        C  0.53882949  0.95469663  0.89393534     0.95700
O127        O  0.64698320  0.90798836  0.86635354    -0.77500
O128        O  0.47762607  0.90867834  0.82360967    -0.82700
C129        C  0.55727759  0.82228919  0.78902678     0.98300
C130        C  0.47402879  0.92379539  0.79742495     1.04300
O131        O  0.57837541  0.85370404  0.77517175    -0.78300
C132        C  0.63341416  0.86640805  0.87121157     1.02600
Fe133      Fe  0.02708351  0.39314180  0.15551611     1.65800
Fe134      Fe  0.11362979  0.47316951  0.15917676     1.73200
Fe135      Fe  0.05884361  0.44162464  0.22060401     1.54400
O136        O  0.98955671  0.45316613  0.21529017    -0.82100
O137        O  0.15528481  0.47849832  0.19595160    -0.80400
O138        O  0.96643171  0.42299118  0.17234095    -0.84600
O139        O  0.02511348  0.34232916  0.18680131    -0.79400
O140        O  0.06849115  0.51246365  0.21847165    -0.81200
O141        O  0.14597094  0.41258531  0.14673124    -0.83900
C142        C  0.03285671  0.33906622  0.21397046     0.96800
C143        C  0.95859397  0.44558301  0.19602985     1.04300
O144        O  0.06604410  0.43559278  0.17824440    -1.12900
O145        O  0.08315077  0.47764815  0.11854515    -0.75400
O146        O  0.01990325  0.43505568  0.11950900    -0.78800
O147        O  0.04776530  0.37268920  0.22905460    -0.79500
C148        C  0.04667077  0.46278692  0.10657467     0.95700
O149        O  0.08736476  0.36224307  0.13871941    -0.77500
O150        O  0.08064025  0.53346897  0.17199779    -0.82700
C151        C  0.15852483  0.45816613  0.22037158     0.98300
C152        C  0.07054568  0.54305294  0.19850361     1.04300
O153        O  0.12772111  0.43061870  0.22925803    -0.78300
C154        C  0.13062072  0.37271213  0.13902989     1.02600
Fe155      Fe  0.47349766  0.10193491  0.15412345     1.65800
Fe156      Fe  0.38910126  0.01949843  0.15632264     1.73200
Fe157      Fe  0.44891104  0.05026756  0.21803443     1.54400
O158        O  0.51948856  0.05599737  0.21162137    -0.82100
O159        O  0.34289909  0.02422803  0.19045902    -0.80400
O160        O  0.53431451  0.06721084  0.16405831    -0.84600
O161        O  0.48501722  0.14535344  0.18963865    -0.79400
O162        O  0.45560284  0.98052599  0.21270542    -0.81200
O163        O  0.35950513  0.08041035  0.13986744    -0.83900
C164        C  0.46882947  0.15032209  0.21523865     0.96800
C165        C  0.54716624  0.05722356  0.18998328     1.04300
O166        O  0.43683875  0.05675693  0.17602031    -1.12900
O167        O  0.42568119  0.00772391  0.11800229    -0.75400
O168        O  0.47101327  0.06886376  0.11401116    -0.78800
O169        O  0.44313357  0.12003733  0.22677534    -0.79500
C170        C  0.45312256  0.03260799  0.10328537     0.95700
O171        O  0.41300856  0.13683433  0.14457315    -0.77500
O172        O  0.41680234  0.95736821  0.17271508    -0.82700
C173        C  0.34417460  0.03254164  0.21769415     0.98300
C174        C  0.44278507  0.94917227  0.19482175     1.04300
O175        O  0.38116039  0.04295745  0.23091042    -0.78300
C176        C  0.37175152  0.12315633  0.13912312     1.02600
C177        C  0.33608690  0.15901994  0.13296491    -0.01700
C178        C  0.28999824  0.14670044  0.12715239    -0.09700
C179        C  0.25564554  0.18054557  0.12444193    -0.18500
C180        C  0.26617704  0.22818568  0.12778497     0.03900
C181        C  0.31314003  0.24052689  0.13290085     0.18000
C182        C  0.34731905  0.20624861  0.13520009    -0.20000
C183        C  0.32569756  0.28701290  0.13658468    -0.21200
C184        C  0.29242904  0.32157297  0.13624191    -0.19800
C185        C  0.24571815  0.31058284  0.13215789     0.19400
C186        C  0.23184493  0.26391477  0.12726518     0.01600
C187        C  0.18410428  0.25512541  0.12300990    -0.14500
C188        C  0.15145857  0.29071230  0.12539463    -0.12200
C189        C  0.16519554  0.33628843  0.13175684     0.01100
C190        C  0.21267301  0.34599972  0.13407418    -0.24400
H191        H  0.28011929  0.11061070  0.12529729     0.09100
H192        H  0.22101817  0.16826361  0.12038387     0.12700
H193        H  0.38268262  0.21654174  0.13977192     0.11400
H194        H  0.36145542  0.29666065  0.14038486     0.12600
H195        H  0.30324126  0.35712090  0.13982729     0.11600
H196        H  0.17080084  0.22093668  0.11856120     0.08700
H197        H  0.11515399  0.28210114  0.12318072     0.12000
H198        H  0.22408572  0.38106607  0.13872358     0.13800
C199        C  0.52065045  0.96873162  0.92324023    -0.01700
C200        C  0.48882989  0.94028493  0.93792533    -0.09700
C201        C  0.47556710  0.94969452  0.96681867    -0.18500
C202        C  0.49362648  0.98828511  0.98223759     0.03900
C203        C  0.52438636  0.01815050  0.96691734     0.18000
C204        C  0.53764580  0.00812787  0.93785491    -0.20000
C205        C  0.54247639  0.05746543  0.98087253    -0.21200
C206        C  0.53140263  0.06741047  0.00986961    -0.19800
C207        C  0.50226619  0.03809885  0.02582974     0.19400
C208        C  0.48275864  0.99814340  0.01230617     0.01600
C209        C  0.45382115  0.96964484  0.02965196    -0.14500
C210        C  0.44474132  0.98045594  0.05906632    -0.12200
C211        C  0.46407403  0.01994224  0.07231713     0.01100
C212        C  0.49277400  0.04857433  0.05535280    -0.24400
H213        H  0.47501004  0.90957543  0.92734572     0.09100
H214        H  0.45151168  0.92578128  0.97658978     0.12700
H215        H  0.56206243  0.03061246  0.92681795     0.11400
H216        H  0.56567171  0.08057329  0.96933091     0.12600
H217        H  0.54622251  0.09805546  0.02000746     0.11600
H218        H  0.43782144  0.93862272  0.02116539     0.08700
H219        H  0.42225471  0.95777797  0.07144747     0.12000
H220        H  0.50784586  0.07941294  0.06511096     0.13800
C221        C  0.03604330  0.47676224  0.07604203    -0.01700
C222        C  0.06516355  0.50743691  0.06100721    -0.09700
C223        C  0.05759199  0.51764020  0.03148321    -0.18500
C224        C  0.02046885  0.49722550  0.01584284     0.03900
C225        C  0.99063829  0.46670410  0.03132620     0.18000
C226        C  0.99851970  0.45697163  0.06102200    -0.20000
C227        C  0.95323165  0.44564594  0.01705587    -0.21200
C228        C  0.94451173  0.45439809  0.98769087    -0.19800
C229        C  0.97299697  0.48439874  0.97183106     0.19400
C230        C  0.01160906  0.50608208  0.98552597     0.01600
C231        C  0.03924205  0.53593033  0.96829056    -0.14500
C232        C  0.02779569  0.54521956  0.93912343    -0.12200
C233        C  0.98886089  0.52475998  0.92602710     0.01100
C234        C  0.96230136  0.49356276  0.94243955    -0.24400
H235        H  0.09448572  0.52323574  0.07198038     0.09100
H236        H  0.08158798  0.54136600  0.02150500     0.12700
H237        H  0.97576632  0.43307166  0.07229131     0.11400
H238        H  0.93043154  0.42229460  0.02872019     0.12600
H239        H  0.91503898  0.43777617  0.97735090     0.11600
H240        H  0.06945406  0.55322528  0.97681601     0.08700
H241        H  0.04908032  0.56932713  0.92696603     0.12000
H242        H  0.93203020  0.47751697  0.93266763     0.13800
C243        C  0.66833946  0.83206905  0.88112777    -0.01700
C244        C  0.65584650  0.78575560  0.88600444    -0.09700
C245        C  0.68955150  0.75150481  0.88938907    -0.18500
C246        C  0.73721341  0.76234982  0.88749548     0.03900
C247        C  0.74966689  0.80972920  0.88436405     0.18000
C248        C  0.71544729  0.84392218  0.88171682    -0.20000
C249        C  0.79622941  0.82256150  0.88222936    -0.21200
C250        C  0.83071052  0.78916184  0.88150311    -0.19800
C251        C  0.81957082  0.74206385  0.88315695     0.19400
C252        C  0.77283192  0.72793390  0.88706218     0.01600
C253        C  0.76376942  0.67989547  0.88902143    -0.14500
C254        C  0.79905555  0.64737974  0.88520864    -0.12200
C255        C  0.84471189  0.66140821  0.87962827     0.01100
C256        C  0.85480511  0.70899718  0.87966494    -0.24400
H257        H  0.61980212  0.77547156  0.88596757     0.09100
H258        H  0.67714668  0.71658910  0.89226563     0.12700
H259        H  0.72581626  0.87955541  0.87813681     0.11400
H260        H  0.80597996  0.85864648  0.88005119     0.12600
H261        H  0.86628676  0.80022263  0.87880693     0.11600
H262        H  0.72952210  0.66627304  0.89266407     0.08700
H263        H  0.79010197  0.61095339  0.88564878     0.12000
H264        H  0.88988346  0.72055394  0.87550807     0.13800
C265        C  0.94151761  0.09126886  0.29895416    -0.01700
C266        C  0.97138248  0.12033161  0.31466500    -0.09700
C267        C  0.98685210  0.16192246  0.30233992    -0.18500
C268        C  0.97265105  0.17532535  0.27386036     0.03900
C269        C  0.94025027  0.14653456  0.25896820     0.18000
C270        C  0.92507407  0.10528495  0.27160138    -0.20000
C271        C  0.92416524  0.15812084  0.23107520    -0.21200
C272        C  0.94049459  0.19732834  0.21709901    -0.19800
C273        C  0.97330257  0.22582986  0.23069586     0.19400
C274        C  0.98971466  0.21564576  0.25934693     0.01600
C275        C  0.02268361  0.24608528  0.27195204    -0.14500
C276        C  0.03779700  0.28541510  0.25693149    -0.12200
C277        C  0.02112890  0.29523367  0.22880617     0.01100
C278        C  0.98936217  0.26485920  0.21574917    -0.24400
H279        H  0.98453444  0.10982053  0.33584160     0.09100
H280        H  0.01067135  0.18221320  0.31528570     0.12700
H281        H  0.90146230  0.08293210  0.25956842     0.11400
H282        H  0.89921477  0.13632956  0.21979855     0.12600
H283        H  0.92762288  0.20521834  0.19537819     0.11600
H284        H  0.03707489  0.24069639  0.29344234     0.08700
H285        H  0.06230847  0.30848458  0.26750557     0.12000
H286        H  0.97574438  0.27242779  0.19414680     0.13800
C287        C  0.97490138  0.79539277  0.27520056    -0.01700
C288        C  0.96304980  0.78680336  0.24587919    -0.09700
C289        C  0.97966638  0.74741221  0.23127428    -0.18500
C290        C  0.00922896  0.71567618  0.24559669     0.03900
C291        C  0.02052950  0.72457415  0.27542021     0.18000
C292        C  0.00310271  0.76354898  0.28980044    -0.20000
C293        C  0.04967669  0.69485671  0.29086688    -0.21200
C294        C  0.06737055  0.65565979  0.27751292    -0.19800
C295        C  0.05632205  0.64529627  0.24841118     0.19400
C296        C  0.02772792  0.67527195  0.23172651     0.01600
C297        C  0.01854768  0.66288212  0.20217324    -0.14500
C298        C  0.03488767  0.62107331  0.19041063    -0.12200
C299        C  0.06076652  0.59087590  0.20774831     0.01100
C300        C  0.07261980  0.60403981  0.23629617    -0.24400
H301        H  0.94155529  0.81098540  0.23401483     0.09100
H302        H  0.96924286  0.74299529  0.20876396     0.12700
H303        H  0.01294724  0.76973887  0.31242007     0.11400
H304        H  0.05861039  0.70180417  0.31354510     0.12600
H305        H  0.08936258  0.63291806  0.29018719     0.11600
H306        H  0.99791067  0.68413150  0.18792883     0.08700
H307        H  0.02535879  0.61133082  0.16826246     0.12000
H308        H  0.09327998  0.58093929  0.24964612     0.13800
C309        C  0.08650489  0.96040726  0.29681508    -0.01700
C310        C  0.12660300  0.95423705  0.31359584    -0.09700
C311        C  0.16956681  0.97017634  0.30335655    -0.18500
C312        C  0.17354092  0.99246542  0.27581373     0.03900
C313        C  0.13246943  0.99916526  0.25935104     0.18000
C314        C  0.09001173  0.98375924  0.27000100    -0.20000
C315        C  0.13378586  0.02018123  0.23182485    -0.21200
C316        C  0.17553709  0.03298880  0.21948459    -0.19800
C317        C  0.21685765  0.02576206  0.23459482     0.19400
C318        C  0.21660111  0.00690147  0.26337583     0.01600
C319        C  0.25956140  0.00233859  0.27791430    -0.14500
C320        C  0.30103472  0.01308212  0.26362899    -0.12200
C321        C  0.30083482  0.02833154  0.23451019     0.01100
C322        C  0.25858583  0.03594033  0.22052701    -0.24400
H323        H  0.12489028  0.93664232  0.33447237     0.09100
H324        H  0.19914913  0.96371139  0.31712113     0.12700
H325        H  0.05943602  0.98940851  0.25673708     0.11400
H326        H  0.10235288  0.02557236  0.21934943     0.12600
H327        H  0.17556437  0.04788907  0.19772620     0.11600
H328        H  0.26219732  0.98975286  0.30005651     0.08700
H329        H  0.33344813  0.00742494  0.27495138     0.12000
H330        H  0.25823952  0.04871069  0.19820325     0.13800
C331        C  0.59590547  0.04810930  0.19682075    -0.01700
C332        C  0.61800242  0.00805652  0.18679316    -0.09700
C333        C  0.65934024  0.99331096  0.19986343    -0.18500
C334        C  0.67918973  0.01821504  0.22364128     0.03900
C335        C  0.65748681  0.06021644  0.23237476     0.18000
C336        C  0.61661057  0.07470251  0.21886250    -0.20000
C337        C  0.67525123  0.08654255  0.25557567    -0.21200
C338        C  0.71332574  0.07129478  0.27119707    -0.19800
C339        C  0.73467418  0.02941917  0.26393600     0.19400
C340        C  0.71864563  0.00251539  0.23976818     0.01600
C341        C  0.74242111  0.96088988  0.23328685    -0.14500
C342        C  0.78034916  0.94677130  0.25017099    -0.12200
C343        C  0.79530417  0.97320823  0.27424074     0.01100
C344        C  0.77212018  0.01445880  0.28088565    -0.24400
H345        H  0.60185423  0.98665856  0.17010033     0.09100
H346        H  0.67390620  0.96145482  0.19172825     0.12700
H347        H  0.59907127  0.10549172  0.22679008     0.11400
H348        H  0.65890557  0.11869182  0.26214350     0.12600
H349        H  0.72578113  0.09214033  0.28938685     0.11600
H350        H  0.73268969  0.93872812  0.21524356     0.08700
H351        H  0.79809784  0.91507879  0.24431678     0.12000
H352        H  0.78399025  0.03582610  0.29901060     0.13800
C353        C  0.83864399  0.83817044  0.37627144    -0.01700
C354        C  0.79239959  0.85050632  0.38121929    -0.09700
C355        C  0.75763618  0.81687521  0.38242043    -0.18500
C356        C  0.76789835  0.76943054  0.37829944     0.03900
C357        C  0.81512086  0.75686486  0.37494244     0.18000
C358        C  0.84983141  0.79101819  0.37424000    -0.20000
C359        C  0.82734160  0.71040043  0.37103510    -0.21200
C360        C  0.79356290  0.67618863  0.36929064    -0.19800
C361        C  0.74667015  0.68756553  0.37131360     0.19400
C362        C  0.73307110  0.73422420  0.37631424     0.01600
C363        C  0.68517138  0.74371292  0.37798772    -0.14500
C364        C  0.65234896  0.70874527  0.37360953    -0.12200
C365        C  0.66591268  0.66303438  0.36776415     0.01100
C366        C  0.71327583  0.65262698  0.36737624    -0.24400
H367        H  0.78263868  0.88657563  0.38317052     0.09100
H368        H  0.72295756  0.82928814  0.38576888     0.12700
H369        H  0.88538189  0.78084433  0.37042469     0.11400
H370        H  0.86327221  0.70053895  0.36862599     0.12600
H371        H  0.80417859  0.64067351  0.36561994     0.11600
H372        H  0.67188918  0.77796331  0.38195676     0.08700
H373        H  0.61605570  0.71785419  0.37428086     0.12000
H374        H  0.72436596  0.61748121  0.36286855     0.13800
C375        C  0.46014909  0.90183782  0.20111691    -0.01700
C376        C  0.44013070  0.86163113  0.18930810    -0.09700
C377        C  0.45490470  0.81766838  0.19855278    -0.18500
C378        C  0.48981998  0.81289494  0.22023070     0.03900
C379        C  0.51073391  0.85395679  0.23123010     0.18000
C380        C  0.49662686  0.89724561  0.22120539    -0.20000
C381        C  0.54442869  0.85206191  0.25319229    -0.21200
C382        C  0.55618952  0.81022169  0.26581317    -0.19800
C383        C  0.53554222  0.76914007  0.25616597     0.19400
C384        C  0.50351226  0.76940351  0.23242157     0.01600
C385        C  0.48594407  0.72624422  0.22262091    -0.14500
C386        C  0.49751247  0.68513402  0.23705817    -0.12200
C387        C  0.52619969  0.68603491  0.26180993     0.01100
C388        C  0.54587086  0.72791601  0.27080649    -0.24400
H389        H  0.41213032  0.86413384  0.17362916     0.09100
H390        H  0.43729560  0.78814428  0.18920265     0.12700
H391        H  0.51332933  0.92788711  0.23013600     0.11400
H392        H  0.56058008  0.88342198  0.26146982     0.12600
H393        H  0.58112396  0.81008837  0.28356155     0.11600
H394        H  0.46280177  0.72335780  0.20416451     0.08700
H395        H  0.48222787  0.65281395  0.22971163     0.12000
H396        H  0.56868292  0.72846485  0.28969815     0.13800
C397        C  0.48383692  0.19096314  0.23243362    -0.01700
C398        C  0.52931573  0.20681147  0.22922608    -0.09700
C399        C  0.54561066  0.24429691  0.24550003    -0.18500
C400        C  0.51639186  0.26810251  0.26518918     0.03900
C401        C  0.46978630  0.25268188  0.26785432     0.18000
C402        C  0.45432240  0.21348238  0.25216038    -0.20000
C403        C  0.43867313  0.27740688  0.28540714    -0.21200
C404        C  0.45229855  0.31831132  0.29923326    -0.19800
C405        C  0.49791311  0.33428305  0.29692099     0.19400
C406        C  0.53117934  0.30811113  0.28110265     0.01600
C407        C  0.57755467  0.32394370  0.28119506    -0.14500
C408        C  0.58932648  0.36647165  0.29380527    -0.12200
C409        C  0.55544369  0.39412155  0.30672633     0.01100
C410        C  0.51013107  0.37735006  0.30913176    -0.24400
H411        H  0.55276932  0.18963560  0.21421648     0.09100
H412        H  0.58084337  0.25469766  0.24145123     0.12700
H413        H  0.41895238  0.20149238  0.25448640     0.11400
H414        H  0.40309894  0.26601873  0.28753425     0.12600
H415        H  0.42689752  0.33781554  0.31158622     0.11600
H416        H  0.60528324  0.30476065  0.27112234     0.08700
H417        H  0.62441223  0.37926517  0.29163638     0.12000
H418        H  0.48385783  0.39907944  0.31906134     0.13800
C419        C  0.69469560  0.52869362  0.26179383    -0.01700
C420        C  0.69481422  0.50403840  0.23528554    -0.09700
C421        C  0.73646584  0.49420750  0.22091121    -0.18500
C422        C  0.77930205  0.50919802  0.23266908     0.03900
C423        C  0.77825212  0.53748351  0.25830491     0.18000
C424        C  0.73635689  0.54653060  0.27263631    -0.20000
C425        C  0.81920514  0.55510561  0.27025518    -0.21200
C426        C  0.86158616  0.54325512  0.25826127    -0.19800
C427        C  0.86404721  0.51282055  0.23437199     0.19400
C428        C  0.82314766  0.49589380  0.22076015     0.01600
C429        C  0.82823117  0.46478814  0.19681734    -0.14500
C430        C  0.87207058  0.44930943  0.18794445    -0.12200
C431        C  0.91199675  0.46466549  0.20246292     0.01100
C432        C  0.90747809  0.49776451  0.22491762    -0.24400
H433        H  0.66283853  0.49021011  0.22644628     0.09100
H434        H  0.73418675  0.47393871  0.20106657     0.12700
H435        H  0.73628584  0.56634240  0.29290246     0.11400
H436        H  0.81852616  0.57729560  0.28947936     0.12600
H437        H  0.89277948  0.55660763  0.26847230     0.11600
H438        H  0.79892672  0.45065266  0.18519712     0.08700
H439        H  0.87457160  0.42419640  0.17032551     0.12000
H440        H  0.93806110  0.51092217  0.23596936     0.13800
C441        C  0.19676787  0.47151064  0.23979054    -0.01700
C442        C  0.20571263  0.51869173  0.24390152    -0.09700
C443        C  0.24253188  0.53350582  0.26118085    -0.18500
C444        C  0.27265422  0.50125960  0.27428049     0.03900
C445        C  0.26308857  0.45320144  0.27027320     0.18000
C446        C  0.22448257  0.43876050  0.25377117    -0.20000
C447        C  0.29338916  0.42001064  0.28151431    -0.21200
C448        C  0.33461592  0.43348955  0.29479529    -0.19800
C449        C  0.34563950  0.48046696  0.29804010     0.19400
C450        C  0.31362350  0.51503011  0.28940740     0.01600
C451        C  0.32522884  0.56195875  0.29496020    -0.14500
C452        C  0.36901078  0.57413878  0.30536068    -0.12200
C453        C  0.40197136  0.53998785  0.31061597     0.01100
C454        C  0.38961201  0.49324348  0.30822886    -0.24400
H455        H  0.18399792  0.54440801  0.23352175     0.09100
H456        H  0.24759171  0.57041478  0.26278444     0.12700
H457        H  0.21744474  0.40219475  0.25049801     0.11400
H458        H  0.28626823  0.38339152  0.27873360     0.12600
H459        H  0.35859457  0.40700110  0.30186962     0.11600
H460        H  0.30179161  0.59008052  0.29062967     0.08700
H461        H  0.37818771  0.61042774  0.30732351     0.12000
H462        H  0.41529644  0.46685332  0.31264818     0.13800
C463        C  0.53323712  0.52479767  0.42571224    -0.01700
C464        C  0.49997294  0.55057890  0.44102249    -0.09700
C465        C  0.48954930  0.54098912  0.47027180    -0.18500
C466        C  0.51219880  0.50501310  0.48550385     0.03900
C467        C  0.54492393  0.47798886  0.46974147     0.18000
C468        C  0.55510033  0.48802531  0.44023374    -0.20000
C469        C  0.56768345  0.44138616  0.48362613    -0.21200
C470        C  0.55887320  0.43113988  0.51288556    -0.19800
C471        C  0.52725620  0.45738509  0.52915390     0.19400
C472        C  0.50358337  0.49485145  0.51573381     0.01600
C473        C  0.47238894  0.52052785  0.53320971    -0.14500
C474        C  0.46405828  0.50867830  0.56237612    -0.12200
C475        C  0.48649111  0.47099649  0.57543250     0.01100
C476        C  0.51868791  0.44593153  0.55868199    -0.24400
H477        H  0.48222711  0.57899248  0.43050059     0.09100
H478        H  0.46372835  0.56260847  0.48035744     0.12700
H479        H  0.58069964  0.46751075  0.42871773     0.11400
H480        H  0.59256645  0.42049574  0.47176253     0.12600
H481        H  0.57701679  0.40247876  0.52288426     0.11600
H482        H  0.45351097  0.54978947  0.52496090     0.08700
H483        H  0.43905021  0.52881328  0.57461899     0.12000
H484        H  0.53616249  0.41655341  0.56833894     0.13800
C485        C  0.29256035  0.46103056  0.72338876    -0.01700
C486        C  0.25998383  0.48526554  0.70666513    -0.09700
C487        C  0.22130099  0.50528350  0.71958112    -0.18500
C488        C  0.21336091  0.50183721  0.75000630     0.03900
C489        C  0.24447642  0.47466389  0.76678904     0.18000
C490        C  0.28392838  0.45483726  0.75346788    -0.20000
C491        C  0.23610837  0.46801033  0.79674627    -0.21200
C492        C  0.19722734  0.48725387  0.81021087    -0.19800
C493        C  0.16642694  0.51489174  0.79430467     0.19400
C494        C  0.17503212  0.52363438  0.76413846     0.01600
C495        C  0.14482957  0.55386795  0.74930181    -0.14500
C496        C  0.10543368  0.57106412  0.76292585    -0.12200
C497        C  0.09481374  0.55954629  0.79191902     0.01100
C498        C  0.12637815  0.53287238  0.80798755    -0.24400
H499        H  0.26502460  0.49010698  0.68335958     0.09100
H500        H  0.19813276  0.52317016  0.70500528     0.12700
H501        H  0.30860003  0.43597202  0.76670551     0.11400
H502        H  0.25945359  0.44723262  0.80977547     0.12600
H503        H  0.19126705  0.48054606  0.83324702     0.11600
H504        H  0.15035796  0.56458414  0.72697049     0.08700
H505        H  0.08208236  0.59246513  0.75029863     0.12000
H506        H  0.11852471  0.52399508  0.83050278     0.13800
C507        C  0.58805819  0.44287664  0.71424561    -0.01700
C508        C  0.59094945  0.45055509  0.74460458    -0.09700
C509        C  0.63055186  0.46878716  0.75746614    -0.18500
C510        C  0.66955908  0.48013298  0.74042532     0.03900
C511        C  0.66737625  0.47158403  0.70970504     0.18000
C512        C  0.62676009  0.45313250  0.69685678    -0.20000
C513        C  0.70575200  0.48159301  0.69211544    -0.21200
C514        C  0.74634540  0.49919387  0.70443422    -0.19800
C515        C  0.74952970  0.50760958  0.73464386     0.19400
C516        C  0.71086103  0.49885486  0.75299415     0.01600
C517        C  0.71536217  0.50859142  0.78328852    -0.14500
C518        C  0.75726829  0.52355416  0.79505565    -0.12200
C519        C  0.79598819  0.53016143  0.77720233     0.01100
C520        C  0.79154027  0.52348044  0.74681064    -0.24400
H521        H  0.56206416  0.44279426  0.75887156     0.09100
H522        H  0.62931266  0.47330543  0.78077315     0.12700
H523        H  0.62509038  0.44748165  0.67339764     0.11400
H524        H  0.70454219  0.47533817  0.66870073     0.12600
H525        H  0.77559925  0.50590160  0.69025153     0.11600
H526        H  0.68764701  0.50435359  0.79861863     0.08700
H527        H  0.75956672  0.52904611  0.81852093     0.12000
H528        H  0.82135262  0.52841967  0.73280034     0.13800
C529        C  0.56337728  0.07494175  0.78947177    -0.01700
C530        C  0.54569462  0.10943335  0.80795034    -0.09700
C531        C  0.52737043  0.15030619  0.79627589    -0.18500
C532        C  0.52621923  0.15782144  0.76559953     0.03900
C533        C  0.54598679  0.12339006  0.74717670     0.18000
C534        C  0.56425097  0.08285346  0.75915780    -0.20000
C535        C  0.54690004  0.12910976  0.71676332    -0.21200
C536        C  0.52856360  0.16852155  0.70407258    -0.19800
C537        C  0.50853802  0.20301883  0.72146141     0.19400
C538        C  0.50649055  0.19811403  0.75244088     0.01600
C539        C  0.48484862  0.23380568  0.76872842    -0.14500
C540        C  0.46807583  0.27357882  0.75492346    -0.12200
C541        C  0.47229846  0.27905262  0.72454210     0.01100
C542        C  0.49149599  0.24296763  0.70795105    -0.24400
H543        H  0.54469045  0.10423946  0.83142687     0.09100
H544        H  0.51398354  0.17513359  0.81175861     0.12700
H545        H  0.57848087  0.05678232  0.74457350     0.11400
H546        H  0.56199721  0.10290170  0.70266221     0.12600
H547        H  0.53014616  0.17208462  0.68045320     0.11600
H548        H  0.48102351  0.23231566  0.79218816     0.08700
H549        H  0.45349473  0.30097599  0.76827358     0.12000
H550        H  0.49456987  0.24657789  0.68438064     0.13800
C551        C  0.54967161  0.77604622  0.77567256    -0.01700
C552        C  0.53405087  0.73993125  0.79353041    -0.09700
C553        C  0.51663181  0.69928492  0.78141670    -0.18500
C554        C  0.51388221  0.69332261  0.75075348     0.03900
C555        C  0.53405348  0.72773053  0.73264378     0.18000
C556        C  0.55152256  0.76896939  0.74519126    -0.20000
C557        C  0.53536261  0.72110540  0.70219374    -0.21200
C558        C  0.51656031  0.68122433  0.68943665    -0.19800
C559        C  0.49430863  0.64790870  0.70669411     0.19400
C560        C  0.49181962  0.65430481  0.73757333     0.01600
C561        C  0.46615761  0.62208110  0.75404192    -0.14500
C562        C  0.44671841  0.58334529  0.74082660    -0.12200
C563        C  0.45196333  0.57494811  0.71074598     0.01100
C564        C  0.47473033  0.60805986  0.69350622    -0.24400
H565        H  0.53359056  0.74374337  0.81716323     0.09100
H566        H  0.50534186  0.67327583  0.79669386     0.12700
H567        H  0.56424657  0.79635542  0.73115868     0.11400
H568        H  0.55113449  0.74685442  0.68816989     0.12600
H569        H  0.51861875  0.67687132  0.66587520     0.11600
H570        H  0.46003683  0.62597866  0.77720832     0.08700
H571        H  0.42820837  0.55903787  0.75455519     0.12000
H572        H  0.47860874  0.60208658  0.67016743     0.13800
C573        C  0.97970118  0.97544828  0.42957919    -0.01700
C574        C  0.01613772  0.95114172  0.44275679    -0.09700
C575        C  0.02828460  0.95905842  0.47197985    -0.18500
C576        C  0.00430646  0.99184010  0.48926303     0.03900
C577        C  0.96882180  0.01797454  0.47549544     0.18000
C578        C  0.95677388  0.00949252  0.44604694    -0.20000
C579        C  0.94508640  0.05203303  0.49131928    -0.21200
C580        C  0.95555184  0.06053242  0.52060089    -0.19800
C581        C  0.98953491  0.03471663  0.53497494     0.19400
C582        C  0.01419029  0.99968510  0.51963999     0.01600
C583        C  0.04729669  0.97386238  0.53549933    -0.14500
C584        C  0.05650997  0.98350151  0.56499750    -0.12200
C585        C  0.03322986  0.01915950  0.57976612     0.01100
C586        C  0.99926541  0.04413984  0.56459455    -0.24400
H587        H  0.03485173  0.92487528  0.43063154     0.09100
H588        H  0.05646550  0.93875571  0.48042723     0.12700
H589        H  0.92883992  0.02888051  0.43613226     0.11400
H590        H  0.91819882  0.07228421  0.48096925     0.12600
H591        H  0.93664890  0.08732522  0.53215994     0.11600
H592        H  0.06680889  0.94607519  0.52572027     0.08700
H593        H  0.08298553  0.96366255  0.57604630     0.12000
H594        H  0.98083091  0.07174837  0.57569849     0.13800
C595        C  0.17397327  0.15641564  0.62456140    -0.01700
C596        C  0.16194323  0.20170980  0.61682091    -0.09700
C597        C  0.19588071  0.23532993  0.61203018    -0.18500
C598        C  0.24337040  0.22497155  0.61540026     0.03900
C599        C  0.25555344  0.17839941  0.62172560     0.18000
C600        C  0.22102444  0.14463263  0.62581718    -0.20000
C601        C  0.30202866  0.16629344  0.62544948    -0.21200
C602        C  0.33651966  0.19993317  0.62472463    -0.19800
C603        C  0.32543607  0.24650001  0.62010582     0.19400
C604        C  0.27892405  0.25951203  0.61438000     0.01600
C605        C  0.26980262  0.30692122  0.60939739    -0.14500
C606        C  0.30448715  0.34031389  0.61264214    -0.12200
C607        C  0.34962061  0.32773683  0.62043995     0.01100
C608        C  0.36023040  0.28043495  0.62276310    -0.24400
H609        H  0.12595553  0.21172325  0.61535041     0.09100
H610        H  0.18366810  0.26949643  0.60680266     0.12700
H611        H  0.23091986  0.10974528  0.63181785     0.11400
H612        H  0.31163233  0.13079616  0.63002168     0.12600
H613        H  0.37196375  0.18965257  0.62877714     0.11600
H614        H  0.23588042  0.31957697  0.60398240     0.08700
H615        H  0.29535590  0.37642547  0.61015045     0.12000
H616        H  0.39502868  0.27002951  0.62858927     0.13800
C617        C  0.42914456  0.94022758  0.78579429    -0.01700
C618        C  0.42709082  0.95522100  0.75659812    -0.09700
C619        C  0.38737576  0.97496532  0.74524346    -0.18500
C620        C  0.34756356  0.98049594  0.76263455     0.03900
C621        C  0.34871555  0.96368169  0.79189667     0.18000
C622        C  0.38948628  0.94403522  0.80330511    -0.20000
C623        C  0.30914585  0.96660134  0.80945784    -0.21200
C624        C  0.26833761  0.98520609  0.79840886    -0.19800
C625        C  0.26638124  0.00218088  0.76972521     0.19400
C626        C  0.30635667  0.00105158  0.75167315     0.01600
C627        C  0.30319582  0.01999728  0.72321821    -0.14500
C628        C  0.26121024  0.03555491  0.71225784    -0.12200
C629        C  0.22128721  0.03386826  0.72942820     0.01100
C630        C  0.22433301  0.01887479  0.75854858    -0.24400
H631        H  0.45675955  0.95236922  0.74223605     0.09100
H632        H  0.38905635  0.98516361  0.72256022     0.12700
H633        H  0.39047188  0.93233213  0.82583723     0.11400
H634        H  0.30956249  0.95380612  0.83174357     0.12600
H635        H  0.23801910  0.98608704  0.81234238     0.11600
H636        H  0.33233046  0.02261751  0.70857400     0.08700
H637        H  0.25964051  0.04778482  0.68985983     0.12000
H638        H  0.19337866  0.01750923  0.77192913     0.13800
C639        C  0.72320017  0.96071331  0.77814840    -0.01700
C640        C  0.73166584  0.95079777  0.74850674    -0.09700
C641        C  0.77056726  0.96897387  0.73429264    -0.18500
C642        C  0.80227186  0.99795545  0.74935815     0.03900
C643        C  0.79426347  0.00633752  0.77967974     0.18000
C644        C  0.75541762  0.98762828  0.79364915    -0.20000
C645        C  0.82455629  0.03416578  0.79593168    -0.21200
C646        C  0.86301137  0.05381577  0.78280926    -0.19800
C647        C  0.87202268  0.04629503  0.75307453     0.19400
C648        C  0.84167576  0.01880794  0.73568036     0.01600
C649        C  0.85247680  0.01338981  0.70554174    -0.14500
C650        C  0.89307462  0.03236732  0.69371958    -0.12200
C651        C  0.92384938  0.05725604  0.71154191     0.01100
C652        C  0.91216837  0.06522590  0.74092198    -0.24400
H653        H  0.70728547  0.93025148  0.73592432     0.09100
H654        H  0.77454693  0.96031846  0.71142813     0.12700
H655        H  0.74950419  0.99546691  0.81660746     0.11400
H656        H  0.81851874  0.04072892  0.81902222     0.12600
H657        H  0.88607154  0.07485916  0.79609101     0.11600
H658        H  0.83073878  0.99389375  0.69074424     0.08700
H659        H  0.90143105  0.02572196  0.67095747     0.12000
H660        H  0.93547954  0.08504912  0.75480673     0.13800
C661        C  0.95703018  0.41282713  0.79523935    -0.01700
C662        C  0.97519883  0.37937120  0.81406464    -0.09700
C663        C  0.99380507  0.33825784  0.80259677    -0.18500
C664        C  0.99486149  0.33001586  0.77190798     0.03900
C665        C  0.97500906  0.36392246  0.75333811     0.18000
C666        C  0.95589487  0.40399303  0.76509573    -0.20000
C667        C  0.97505618  0.35848202  0.72291516    -0.21200
C668        C  0.99454755  0.31971890  0.71021436    -0.19800
C669        C  0.01400279  0.28535181  0.72767873     0.19400
C670        C  0.01471853  0.28973117  0.75876046     0.01600
C671        C  0.03480313  0.25337238  0.77505725    -0.14500
C672        C  0.05146164  0.21358168  0.76100842    -0.12200
C673        C  0.04881276  0.20918333  0.73044878     0.01100
C674        C  0.03141655  0.24584635  0.71400256    -0.24400
H675        H  0.97656568  0.38571794  0.83746080     0.09100
H676        H  0.00795034  0.31410619  0.81813864     0.12700
H677        H  0.94116307  0.42943528  0.75037877     0.11400
H678        H  0.96006417  0.38454374  0.70879531     0.12600
H679        H  0.99394053  0.31636747  0.68654488     0.11600
H680        H  0.03693873  0.25417113  0.79864410     0.08700
H681        H  0.06449403  0.18536931  0.77418450     0.12000
H682        H  0.02957611  0.24281708  0.69031944     0.13800
C683        C  0.05779104  0.91503302  0.71491564    -0.01700
C684        C  0.05019732  0.87770517  0.69588316    -0.09700
C685        C  0.03102781  0.83642066  0.70638479    -0.18500
C686        C  0.01883309  0.83162504  0.73632062     0.03900
C687        C  0.02800523  0.86941890  0.75547500     0.18000
C688        C  0.04753511  0.91003006  0.74475243    -0.20000
C689        C  0.01726504  0.86693586  0.78528992    -0.21200
C690        C  0.99792675  0.82715402  0.79679343    -0.19800
C691        C  0.98895031  0.78903950  0.77872235     0.19400
C692        C  0.99849002  0.79074926  0.74814682     0.01600
C693        C  0.98790309  0.75118471  0.73100379    -0.14500
C694        C  0.97159234  0.71070555  0.74408528    -0.12200
C695        C  0.96528951  0.70870510  0.77445480     0.01100
C696        C  0.97221723  0.74847063  0.79141590    -0.24400
H697        H  0.05791278  0.88082172  0.67275999     0.09100
H698        H  0.02579157  0.80912824  0.69053366     0.12700
H699        H  0.05403193  0.93842004  0.75987709     0.11400
H700        H  0.02412415  0.89590989  0.79986682     0.12600
H701        H  0.99053757  0.82596036  0.82006913     0.11600
H702        H  0.99313385  0.74998666  0.70763283     0.08700
H703        H  0.96648841  0.68012141  0.73062136     0.12000
H704        H  0.96678775  0.74709590  0.81492824     0.13800
loop_ 
_geom_bond_atom_site_label_1 
_geom_bond_atom_site_label_2 
_geom_bond_distance 
_geom_bond_site_symmetry_2 
_ccdc_geom_bond_type 
Fe1          O17   2.087       .  S
Fe1           O7   2.048       .  S
Fe1          O14   2.063       .  S
Fe1           O6   2.090   1_545  S
Fe1          O12   1.962       .  S
Fe2           O5   2.059       .  S
Fe2           O9   2.072       .  S
Fe2          O13   2.056       .  S
Fe2          O18   2.082   1_455  S
Fe2          O12   1.957       .  S
Fe3          O21   2.047       .  S
Fe3           O8   2.066       .  S
Fe3          O15   2.056       .  S
Fe3           O4   2.027   1_545  S
Fe3          O12   1.965       .  S
O4           C11   1.268       .  A
O5           C19   1.266       .  A
O6           C11   1.278       .  A
O7           C10   1.263       .  A
O8           C20   1.273   1_455  A
O9           C22   1.280       .  A
C10          O15   1.263       .  A
C10         C629   1.470       .  S
C11         C683   1.474       .  S
O13          C16   1.262       .  A
O14          C16   1.263       .  A
C16         C585   1.487       .  S
O17          C22   1.281       .  A
O18          C20   1.276       .  A
C19          O21   1.261       .  A
C19         C673   1.472       .  S
C20         C651   1.480       .  S
C22         C595   1.486       .  S
Fe23         O39   2.083       .  S
Fe23         O29   2.056       .  S
Fe23         O36   2.051       .  S
Fe23         O28   2.087       .  S
Fe23         O34   1.956       .  S
Fe24         O27   2.058       .  S
Fe24         O31   2.088       .  S
Fe24         O35   2.072       .  S
Fe24         O40   2.094       .  S
Fe24         O34   1.965       .  S
Fe25         O43   2.063       .  S
Fe25         O30   2.054       .  S
Fe25         O37   2.073       .  S
Fe25         O26   2.055       .  S
Fe25         O34   1.963       .  S
O26          C33   1.273       .  A
O27          C41   1.265       .  A
O28          C33   1.278       .  A
O29          C32   1.264       .  A
O30          C42   1.272       .  A
O31          C44   1.284       .  A
C32          O37   1.265       .  A
C32         C485   1.489       .  S
C33         C563   1.479       .  S
O35          C38   1.262       .  A
O36          C38   1.260       .  A
C38         C475   1.491       .  S
O39          C44   1.285       .  A
O40          C42   1.279       .  A
C41          O43   1.266       .  A
C41         C541   1.482       .  S
C42         C507   1.488       .  S
C44         C607   1.488       .  S
Fe45         O61   2.065       .  S
Fe45         O51   2.065       .  S
Fe45         O58   2.070       .  S
Fe45         O50   2.073       .  S
Fe45         O56   1.980       .  S
Fe46         O49   2.061       .  S
Fe46         O53   2.075       .  S
Fe46         O57   2.072       .  S
Fe46         O62   2.082       .  S
Fe46         O56   1.981       .  S
Fe47         O65   2.072       .  S
Fe47         O52   2.040       .  S
Fe47         O59   2.063       .  S
Fe47         O48   2.048       .  S
Fe47         O56   1.982       .  S
O48          C55   1.267       .  A
O49          C63   1.269       .  A
O50          C55   1.270       .  A
O51          C54   1.268       .  A
O52          C64   1.263       .  A
O53          C66   1.273       .  A
C54          O59   1.266       .  A
C54         C387   1.473       .  S
C55         C453   1.463       .  S
O57          C60   1.269       .  A
O58          C60   1.269       .  A
C60         C463   1.492       .  S
O61          C66   1.271       .  A
O62          C64   1.271       .  A
C63          O65   1.269       .  A
C63         C419   1.477       .  S
C64         C409   1.464       .  S
C66         C365   1.487       .  S
Fe67         O83   2.093       .  S
Fe67         O73   2.039       .  S
Fe67         O80   2.046       .  S
Fe67         O72   2.094   1_655  S
Fe67         O78   1.957       .  S
Fe68         O71   2.079       .  S
Fe68         O75   2.069       .  S
Fe68         O79   2.073       .  S
Fe68         O84   2.070   1_565  S
Fe68         O78   1.962       .  S
Fe69         O87   2.056       .  S
Fe69         O74   2.067   1_565  S
Fe69         O81   2.066       .  S
Fe69         O70   2.044   1_655  S
Fe69         O78   1.957       .  S
O70          C77   1.272       .  A
O71          C85   1.269       .  A
O72          C77   1.279       .  A
O73          C76   1.261       .  A
O74          C86   1.273       .  A
O75          C88   1.281       .  A
C76          O81   1.264       .  A
C76         C287   1.482       .  S
C77         C309   1.485       .  S
O79          C82   1.263       .  A
O80          C82   1.259       .  A
C82         C573   1.489       .  S
O83          C88   1.285       .  A
O84          C86   1.274       .  A
C85          O87   1.263       .  A
C85         C343   1.483       .  S
C86         C265   1.469       .  S
C88         C353   1.487       .  S
Fe89        O105   2.079       .  S
Fe89         O95   2.056       .  S
Fe89        O102   2.054       .  S
Fe89         O94   2.086       .  S
Fe89        O100   1.968       .  S
Fe90         O93   2.051       .  S
Fe90         O97   2.085       .  S
Fe90        O101   2.057       .  S
Fe90        O106   2.092   1_655  S
Fe90        O100   1.968       .  S
Fe91        O109   2.047       .  S
Fe91         O96   2.060   1_655  S
Fe91        O103   2.062       .  S
Fe91         O92   2.034       .  S
Fe91        O100   1.969       .  S
O92          C99   1.269       .  A
O93         C107   1.265       .  A
O94          C99   1.276       .  A
O95          C98   1.265       .  A
O96         C108   1.271       .  A
O97         C110   1.281       .  A
C98         O103   1.264       .  A
C98         C519   1.480       .  S
C99         C661   1.472       .  S
O101        C104   1.261       .  A
O102        C104   1.262       .  A
C104        C233   1.484       .  S
O105        C110   1.280       .  A
O106        C108   1.276       .  A
C107        O109   1.262       .  A
C107        C695   1.467       .  S
C108        C497   1.481       .  S
C110        C255   1.491       .  S
Fe111       O127   2.079       .  S
Fe111       O117   2.067       .  S
Fe111       O124   2.074       .  S
Fe111       O116   2.082   1_565  S
Fe111       O122   1.962       .  S
Fe112       O115   2.045       .  S
Fe112       O119   2.086       .  S
Fe112       O123   2.054       .  S
Fe112       O128   2.088       .  S
Fe112       O122   1.961       .  S
Fe113       O131   2.069       .  S
Fe113       O118   2.045       .  S
Fe113       O125   2.057       .  S
Fe113       O114   2.064       .  S
Fe113       O122   1.967       .  S
O114        C121   1.273   1_565  A
O115        C129   1.263       .  A
O116        C121   1.277       .  A
O117        C120   1.267       .  A
O118        C130   1.271       .  A
O119        C132   1.283       .  A
C120        O125   1.264       .  A
C120        C639   1.484       .  S
C121        C529   1.483       .  S
O123        C126   1.260       .  A
O124        C126   1.264       .  A
C126        C199   1.492       .  S
O127        C132   1.283       .  A
O128        C130   1.278       .  A
C129        O131   1.264       .  A
C129        C551   1.481       .  S
C130        C617   1.482       .  S
C132        C243   1.489       .  S
Fe133       O149   2.104       .  S
Fe133       O139   2.053       .  S
Fe133       O146   2.056       .  S
Fe133       O138   2.101   1_455  S
Fe133       O144   1.956       .  S
Fe134       O137   2.070       .  S
Fe134       O141   2.064       .  S
Fe134       O145   2.057       .  S
Fe134       O150   2.070       .  S
Fe134       O144   1.958       .  S
Fe135       O153   2.056       .  S
Fe135       O140   2.067       .  S
Fe135       O147   2.054       .  S
Fe135       O136   2.047   1_455  S
Fe135       O144   1.952       .  S
O136        C143   1.272       .  A
O137        C151   1.266       .  A
O138        C143   1.281       .  A
O139        C142   1.264       .  A
O140        C152   1.274       .  A
O141        C154   1.281       .  A
C142        O147   1.262       .  A
C142        C277   1.477       .  S
C143        C431   1.486       .  S
O145        C148   1.261       .  A
O146        C148   1.261       .  A
C148        C221   1.485       .  S
O149        C154   1.286       .  A
O150        C152   1.274       .  A
C151        O153   1.261       .  A
C151        C441   1.466       .  S
C152        C299   1.471       .  S
C154        C189   1.490       .  S
Fe155       O171   2.069       .  S
Fe155       O161   2.071       .  S
Fe155       O168   2.062       .  S
Fe155       O160   2.078       .  S
Fe155       O166   1.958       .  S
Fe156       O159   2.058       .  S
Fe156       O163   2.100       .  S
Fe156       O167   2.072       .  S
Fe156       O172   2.107   1_545  S
Fe156       O166   1.963       .  S
Fe157       O175   2.057       .  S
Fe157       O162   2.037   1_545  S
Fe157       O169   2.060       .  S
Fe157       O158   2.069       .  S
Fe157       O166   1.959       .  S
O158        C165   1.272       .  A
O159        C173   1.265       .  A
O160        C165   1.274       .  A
O161        C164   1.267       .  A
O162        C174   1.271       .  A
O163        C176   1.284       .  A
C164        O169   1.263       .  A
C164        C397   1.473       .  S
C165        C331   1.468       .  S
O167        C170   1.265       .  A
O168        C170   1.263       .  A
C170        C211   1.493       .  S
O171        C176   1.280       .  A
O172        C174   1.281       .  A
C173        O175   1.263       .  A
C173        C321   1.475       .  S
C174        C375   1.487       .  S
C176        C177   1.491       .  S
C177        C178   1.404       .  A
C177        C182   1.405       .  A
C178        C179   1.401       .  A
C178        H191   1.083       .  S
C179        C180   1.416       .  A
C179        H192   1.077       .  S
C180        C186   1.434       .  A
C180        C181   1.422       .  A
C181        C183   1.399       .  A
C181        C182   1.405       .  A
C182        H193   1.084       .  S
C183        C184   1.388       .  A
C183        H194   1.084       .  S
C184        C185   1.399       .  A
C184        H195   1.084       .  S
C185        C186   1.422       .  A
C185        C190   1.404       .  A
C186        C187   1.416       .  A
C187        C188   1.401       .  A
C187        H196   1.077       .  S
C188        C189   1.403       .  A
C188        H197   1.083       .  S
C189        C190   1.405       .  A
C190        H198   1.084       .  S
C199        C200   1.405       .  A
C199        C204   1.404   1_565  A
C200        C201   1.399       .  A
C200        H213   1.083       .  S
C201        C202   1.414       .  A
C201        H214   1.077       .  S
C202        C208   1.435   1_556  A
C202        C203   1.424   1_565  A
C203        C205   1.399       .  A
C203        C204   1.410       .  A
C204        H215   1.084       .  S
C205        C206   1.391   1_556  A
C205        H216   1.084       .  S
C206        C207   1.400       .  A
C206        H217   1.084       .  S
C207        C208   1.421   1_545  A
C207        C212   1.407       .  A
C208        C209   1.417       .  A
C209        C210   1.402       .  A
C209        H218   1.078       .  S
C210        C211   1.403   1_565  A
C210        H219   1.083       .  S
C211        C212   1.406       .  A
C212        H220   1.084       .  S
C221        C222   1.403       .  A
C221        C226   1.402   1_455  A
C222        C223   1.398       .  A
C222        H235   1.083       .  S
C223        C224   1.415       .  A
C223        H236   1.077       .  S
C224        C230   1.431   1_554  A
C224        C225   1.423   1_455  A
C225        C227   1.399       .  A
C225        C226   1.404       .  A
C226        H237   1.084       .  S
C227        C228   1.388   1_554  A
C227        H238   1.084       .  S
C228        C229   1.399       .  A
C228        H239   1.084       .  S
C229        C230   1.422   1_655  A
C229        C234   1.403       .  A
C230        C231   1.416       .  A
C231        C232   1.399       .  A
C231        H240   1.077       .  S
C232        C233   1.402   1_455  A
C232        H241   1.083       .  S
C233        C234   1.402       .  A
C234        H242   1.084       .  S
C243        C244   1.403       .  A
C243        C248   1.404       .  A
C244        C245   1.400       .  A
C244        H257   1.083       .  S
C245        C246   1.416       .  A
C245        H258   1.078       .  S
C246        C252   1.434       .  A
C246        C247   1.422       .  A
C247        C249   1.399       .  A
C247        C248   1.406       .  A
C248        H259   1.084       .  S
C249        C250   1.390       .  A
C249        H260   1.084       .  S
C250        C251   1.399       .  A
C250        H261   1.084       .  S
C251        C252   1.423       .  A
C251        C256   1.407       .  A
C252        C253   1.415       .  A
C253        C254   1.399       .  A
C253        H262   1.078       .  S
C254        C255   1.404       .  A
C254        H263   1.083       .  S
C255        C256   1.404       .  A
C256        H264   1.084       .  S
C265        C266   1.398       .  A
C265        C270   1.398       .  A
C266        C267   1.401       .  A
C266        H279   1.083       .  S
C267        C268   1.419       .  A
C267        H280   1.077   1_655  S
C268        C274   1.429       .  A
C268        C269   1.422       .  A
C269        C271   1.397       .  A
C269        C270   1.396       .  A
C270        H281   1.086       .  S
C271        C272   1.384       .  A
C271        H282   1.084       .  S
C272        C273   1.398       .  A
C272        H283   1.084       .  S
C273        C274   1.423       .  A
C273        C278   1.399       .  A
C274        C275   1.415   1_655  A
C275        C276   1.399       .  A
C275        H284   1.077       .  S
C276        C277   1.401       .  A
C276        H285   1.083       .  S
C277        C278   1.399   1_455  A
C278        H286   1.085       .  S
C287        C288   1.402       .  A
C287        C292   1.401   1_655  A
C288        C289   1.402       .  A
C288        H301   1.083       .  S
C289        C290   1.417   1_655  A
C289        H302   1.077       .  S
C290        C296   1.430       .  A
C290        C291   1.422       .  A
C291        C293   1.397       .  A
C291        C292   1.396       .  A
C292        H303   1.084       .  S
C293        C294   1.383       .  A
C293        H304   1.084       .  S
C294        C295   1.397       .  A
C294        H305   1.084       .  S
C295        C296   1.422       .  A
C295        C300   1.395       .  A
C296        C297   1.418       .  A
C297        C298   1.402       .  A
C297        H306   1.077   1_455  S
C298        C299   1.399       .  A
C298        H307   1.083       .  S
C299        C300   1.398       .  A
C300        H308   1.086       .  S
C309        C310   1.401       .  A
C309        C314   1.404       .  A
C310        C311   1.405       .  A
C310        H323   1.083       .  S
C311        C312   1.420       .  A
C311        H324   1.078       .  S
C312        C318   1.431   1_565  A
C312        C313   1.419       .  A
C313        C315   1.398   1_565  A
C313        C314   1.394       .  A
C314        H325   1.084       .  S
C315        C316   1.383       .  A
C315        H326   1.084       .  S
C316        C317   1.396       .  A
C316        H327   1.084       .  S
C317        C318   1.424       .  A
C317        C322   1.399       .  A
C318        C319   1.415       .  A
C319        C320   1.401       .  A
C319        H328   1.078   1_545  S
C320        C321   1.402       .  A
C320        H329   1.083       .  S
C321        C322   1.396       .  A
C322        H330   1.085       .  S
C331        C332   1.398       .  A
C331        C336   1.396       .  A
C332        C333   1.404   1_545  A
C332        H345   1.083   1_545  S
C333        C334   1.419   1_565  A
C333        H346   1.077       .  S
C334        C340   1.433       .  A
C334        C335   1.423       .  A
C335        C337   1.397       .  A
C335        C336   1.399       .  A
C336        H347   1.086       .  S
C337        C338   1.385       .  A
C337        H348   1.084       .  S
C338        C339   1.398       .  A
C338        H349   1.084       .  S
C339        C340   1.423       .  A
C339        C344   1.401       .  A
C340        C341   1.417   1_545  A
C341        C342   1.403       .  A
C341        H350   1.077       .  S
C342        C343   1.402       .  A
C342        H351   1.083       .  S
C343        C344   1.401   1_565  A
C344        H352   1.085       .  S
C353        C354   1.403       .  A
C353        C358   1.403       .  A
C354        C355   1.397       .  A
C354        H367   1.083       .  S
C355        C356   1.415       .  A
C355        H368   1.077       .  S
C356        C362   1.432       .  A
C356        C357   1.422       .  A
C357        C359   1.399       .  A
C357        C358   1.406       .  A
C358        H369   1.084       .  S
C359        C360   1.390       .  A
C359        H370   1.084       .  S
C360        C361   1.399       .  A
C360        H371   1.084       .  S
C361        C362   1.422       .  A
C361        C366   1.406       .  A
C362        C363   1.415       .  A
C363        C364   1.398       .  A
C363        H372   1.077       .  S
C364        C365   1.403       .  A
C364        H373   1.083       .  S
C365        C366   1.403       .  A
C366        H374   1.084       .  S
C375        C376   1.401       .  A
C375        C380   1.404       .  A
C376        C377   1.407       .  A
C376        H389   1.083       .  S
C377        C378   1.420       .  A
C377        H390   1.078       .  S
C378        C384   1.433       .  A
C378        C379   1.419       .  A
C379        C381   1.399       .  A
C379        C380   1.395       .  A
C380        H391   1.085       .  S
C381        C382   1.384       .  A
C381        H392   1.084       .  S
C382        C383   1.396       .  A
C382        H393   1.084       .  S
C383        C384   1.425       .  A
C383        C388   1.401       .  A
C384        C385   1.415       .  A
C385        C386   1.402       .  A
C385        H394   1.078       .  S
C386        C387   1.401       .  A
C386        H395   1.083       .  S
C387        C388   1.395       .  A
C388        H396   1.085       .  S
C397        C398   1.400       .  A
C397        C402   1.400       .  A
C398        C399   1.391       .  A
C398        H411   1.084       .  S
C399        C400   1.412       .  A
C399        H412   1.078       .  S
C400        C406   1.426       .  A
C400        C401   1.424       .  A
C401        C403   1.400       .  A
C401        C402   1.408       .  A
C402        H413   1.085       .  S
C403        C404   1.393       .  A
C403        H414   1.084       .  S
C404        C405   1.401       .  A
C404        H415   1.084       .  S
C405        C406   1.421       .  A
C405        C410   1.405       .  A
C406        C407   1.416       .  A
C407        C408   1.395       .  A
C407        H416   1.078       .  S
C408        C409   1.395       .  A
C408        H417   1.084       .  S
C409        C410   1.401       .  A
C410        H418   1.085       .  S
C419        C420   1.401       .  A
C419        C424   1.398       .  A
C420        C421   1.401       .  A
C420        H433   1.083       .  S
C421        C422   1.416       .  A
C421        H434   1.078       .  S
C422        C428   1.433       .  A
C422        C423   1.424       .  A
C423        C425   1.397       .  A
C423        C424   1.402       .  A
C424        H435   1.085       .  S
C425        C426   1.386       .  A
C425        H436   1.084       .  S
C426        C427   1.399       .  A
C426        H437   1.084       .  S
C427        C428   1.420       .  A
C427        C432   1.398       .  A
C428        C429   1.419       .  A
C429        C430   1.405       .  A
C429        H438   1.078       .  S
C430        C431   1.401       .  A
C430        H439   1.083       .  S
C431        C432   1.405       .  A
C432        H440   1.085       .  S
C441        C442   1.398       .  A
C441        C446   1.398       .  A
C442        C443   1.390       .  A
C442        H455   1.084       .  S
C443        C444   1.412       .  A
C443        H456   1.078       .  S
C444        C450   1.426       .  A
C444        C445   1.425       .  A
C445        C447   1.399       .  A
C445        C446   1.407       .  A
C446        H457   1.085       .  S
C447        C448   1.391       .  A
C447        H458   1.084       .  S
C448        C449   1.400       .  A
C448        H459   1.084       .  S
C449        C450   1.420       .  A
C449        C454   1.402       .  A
C450        C451   1.417       .  A
C451        C452   1.396       .  A
C451        H460   1.078       .  S
C452        C453   1.395       .  A
C452        H461   1.084       .  S
C453        C454   1.399       .  A
C454        H462   1.085       .  S
C463        C464   1.403       .  A
C463        C468   1.406       .  A
C464        C465   1.398       .  A
C464        H477   1.083       .  S
C465        C466   1.415       .  A
C465        H478   1.077       .  S
C466        C472   1.434       .  A
C466        C467   1.422       .  A
C467        C469   1.401       .  A
C467        C468   1.410       .  A
C468        H479   1.084       .  S
C469        C470   1.393       .  A
C469        H480   1.084       .  S
C470        C471   1.401       .  A
C470        H481   1.084       .  S
C471        C472   1.423       .  A
C471        C476   1.411       .  A
C472        C473   1.414       .  A
C473        C474   1.397       .  A
C473        H482   1.077       .  S
C474        C475   1.403       .  A
C474        H483   1.083       .  S
C475        C476   1.405       .  A
C476        H484   1.084       .  S
C485        C486   1.403       .  A
C485        C490   1.408       .  A
C486        C487   1.391       .  A
C486        H499   1.083       .  S
C487        C488   1.411       .  A
C487        H500   1.078       .  S
C488        C494   1.429       .  A
C488        C489   1.422       .  A
C489        C491   1.403       .  A
C489        C490   1.415       .  A
C490        H501   1.084       .  S
C491        C492   1.397       .  A
C491        H502   1.084       .  S
C492        C493   1.402       .  A
C492        H503   1.084       .  S
C493        C494   1.423       .  A
C493        C498   1.415       .  A
C494        C495   1.412       .  A
C495        C496   1.390       .  A
C495        H504   1.078       .  S
C496        C497   1.400       .  A
C496        H505   1.084       .  S
C497        C498   1.404       .  A
C498        H506   1.084       .  S
C507        C508   1.404       .  A
C507        C512   1.404       .  A
C508        C509   1.388       .  A
C508        H521   1.083       .  S
C509        C510   1.410       .  A
C509        H522   1.072       .  S
C510        C516   1.429       .  A
C510        C511   1.424       .  A
C511        C513   1.401       .  A
C511        C512   1.414       .  A
C512        H523   1.083       .  S
C513        C514   1.395       .  A
C513        H524   1.083       .  S
C514        C515   1.402       .  A
C514        H525   1.083       .  S
C515        C516   1.421       .  A
C515        C520   1.410       .  A
C516        C517   1.415       .  A
C517        C518   1.392       .  A
C517        H526   1.072       .  S
C518        C519   1.399       .  A
C518        H527   1.084       .  S
C519        C520   1.405       .  A
C520        H528   1.083       .  S
C529        C530   1.400       .  A
C529        C534   1.403       .  A
C530        C531   1.403       .  A
C530        H543   1.083       .  S
C531        C532   1.418       .  A
C531        H544   1.077       .  S
C532        C538   1.432       .  A
C532        C533   1.421       .  A
C533        C535   1.399       .  A
C533        C534   1.399       .  A
C534        H545   1.085       .  S
C535        C536   1.386       .  A
C535        H546   1.084       .  S
C536        C537   1.398       .  A
C536        H547   1.084       .  S
C537        C538   1.423       .  A
C537        C542   1.401       .  A
C538        C539   1.416       .  A
C539        C540   1.400       .  A
C539        H548   1.077       .  S
C540        C541   1.402       .  A
C540        H549   1.083       .  S
C541        C542   1.401       .  A
C542        H550   1.085       .  S
C551        C552   1.401       .  A
C551        C556   1.406       .  A
C552        C553   1.388       .  A
C552        H565   1.084       .  S
C553        C554   1.411       .  A
C553        H566   1.078       .  S
C554        C560   1.424       .  A
C554        C555   1.420       .  A
C555        C557   1.402       .  A
C555        C556   1.411       .  A
C556        H567   1.084       .  S
C557        C558   1.397       .  A
C557        H568   1.083       .  S
C558        C559   1.402       .  A
C558        H569   1.084       .  S
C559        C560   1.422       .  A
C559        C564   1.413       .  A
C560        C561   1.409       .  A
C561        C562   1.386       .  A
C561        H570   1.078       .  S
C562        C563   1.401       .  A
C562        H571   1.084       .  S
C563        C564   1.404       .  A
C564        H572   1.084       .  S
C573        C574   1.404   1_655  A
C573        C578   1.403   1_565  A
C574        C575   1.396       .  A
C574        H587   1.083       .  S
C575        C576   1.413       .  A
C575        H588   1.077       .  S
C576        C582   1.432       .  A
C576        C577   1.423   1_465  A
C577        C579   1.399       .  A
C577        C578   1.408       .  A
C578        H589   1.084       .  S
C579        C580   1.390       .  A
C579        H590   1.084       .  S
C580        C581   1.400       .  A
C580        H591   1.084       .  S
C581        C582   1.421   1_645  A
C581        C586   1.406       .  A
C582        C583   1.416       .  A
C583        C584   1.399       .  A
C583        H592   1.078       .  S
C584        C585   1.402   1_565  A
C584        H593   1.083       .  S
C585        C586   1.404   1_455  A
C586        H594   1.084       .  S
C595        C596   1.401       .  A
C595        C600   1.405       .  A
C596        C597   1.397       .  A
C596        H609   1.083       .  S
C597        C598   1.415       .  A
C597        H610   1.077       .  S
C598        C604   1.432       .  A
C598        C599   1.422       .  A
C599        C601   1.400       .  A
C599        C600   1.407       .  A
C600        H611   1.085       .  S
C601        C602   1.391       .  A
C601        H612   1.084       .  S
C602        C603   1.400       .  A
C602        H613   1.084       .  S
C603        C604   1.422       .  A
C603        C608   1.408       .  A
C604        C605   1.415       .  A
C605        C606   1.397       .  A
C605        H614   1.077       .  S
C606        C607   1.402       .  A
C606        H615   1.083       .  S
C607        C608   1.405       .  A
C608        H616   1.084       .  S
C617        C618   1.404       .  A
C617        C622   1.403       .  A
C618        C619   1.385       .  A
C618        H631   1.083       .  S
C619        C620   1.408       .  A
C619        H632   1.079       .  S
C620        C626   1.424   1_565  A
C620        C621   1.424       .  A
C621        C623   1.400       .  A
C621        C622   1.410       .  A
C622        H633   1.084       .  S
C623        C624   1.393       .  A
C623        H634   1.084       .  S
C624        C625   1.401   1_565  A
C624        H635   1.084       .  S
C625        C626   1.421       .  A
C625        C630   1.406       .  A
C626        C627   1.415       .  A
C627        C628   1.389       .  A
C627        H636   1.079       .  S
C628        C629   1.397       .  A
C628        H637   1.084       .  S
C629        C630   1.402       .  A
C630        H638   1.085       .  S
C639        C640   1.403       .  A
C639        C644   1.401       .  A
C640        C641   1.401       .  A
C640        H653   1.083       .  S
C641        C642   1.415       .  A
C641        H654   1.078       .  S
C642        C648   1.433   1_565  A
C642        C643   1.423   1_565  A
C643        C645   1.398       .  A
C643        C644   1.401   1_545  A
C644        H655   1.085       .  S
C645        C646   1.385       .  A
C645        H656   1.084       .  S
C646        C647   1.398       .  A
C646        H657   1.084       .  S
C647        C648   1.421       .  A
C647        C652   1.398       .  A
C648        C649   1.419       .  A
C649        C650   1.404       .  A
C649        H658   1.078   1_545  S
C650        C651   1.400       .  A
C650        H659   1.083       .  S
C651        C652   1.401       .  A
C652        H660   1.085       .  S
C661        C662   1.399       .  A
C661        C666   1.398       .  A
C662        C663   1.404       .  A
C662        H675   1.083       .  S
C663        C664   1.420       .  A
C663        H676   1.078   1_655  S
C664        C670   1.429   1_655  A
C664        C665   1.420       .  A
C665        C667   1.397       .  A
C665        C666   1.390       .  A
C666        H677   1.086       .  S
C667        C668   1.380       .  A
C667        H678   1.084       .  S
C668        C669   1.395   1_655  A
C668        H679   1.084       .  S
C669        C670   1.424       .  A
C669        C674   1.394       .  A
C670        C671   1.415       .  A
C671        C672   1.400       .  A
C671        H680   1.078       .  S
C672        C673   1.402       .  A
C672        H681   1.083       .  S
C673        C674   1.395       .  A
C674        H682   1.085       .  S
C683        C684   1.398       .  A
C683        C688   1.402       .  A
C684        C685   1.400       .  A
C684        H697   1.083       .  S
C685        C686   1.419       .  A
C685        H698   1.078       .  S
C686        C692   1.426   1_455  A
C686        C687   1.419       .  A
C687        C689   1.398       .  A
C687        C688   1.392       .  A
C688        H699   1.085       .  S
C689        C690   1.383   1_455  A
C689        H700   1.084       .  S
C690        C691   1.396       .  A
C690        H701   1.084       .  S
C691        C692   1.424       .  A
C691        C696   1.395       .  A
C692        C693   1.414       .  A
C693        C694   1.396       .  A
C693        H702   1.078       .  S
C694        C695   1.399       .  A
C694        H703   1.083       .  S
C695        C696   1.396       .  A
C696        H704   1.085       .  S
