geometry optimzed in LAMMPS
_audit_creation_date              2020-12-01 
_audit_creation_method            'lammps2cif' 
_symmetry_space_group_name_H-M    'P1' 
_symmetry_Int_Tables_number       1 
_symmetry_cell_setting            triclinic 
loop_ 
_symmetry_equiv_pos_as_xyz 
  x,y,z 
_cell_length_a                    39.73174758 
_cell_length_b                    39.58991994616545 
_cell_length_c                    43.72791196054684 
_cell_angle_alpha                 89.90810253468936 
_cell_angle_beta                  89.7888315626907 
_cell_angle_gamma                 89.97002968657578 
loop_ 
_atom_site_label 
_atom_site_type_symbol 
_atom_site_fract_x 
_atom_site_fract_y 
_atom_site_fract_z 
_atom_site_charge 
Fe1        Fe  0.41377330  0.91021767  0.41769873     1.65800
Fe2        Fe  0.39002593  0.83706192  0.44744520     1.73200
Fe3        Fe  0.45803700  0.83927233  0.39950320     1.54400
O4          O  0.44388919  0.86408038  0.35874156    -0.83100
O5          O  0.42948241  0.81785727  0.47224580    -0.81500
O6          O  0.40560800  0.90319778  0.37272870    -0.85700
O7          O  0.46265726  0.92219944  0.40720249    -0.80500
O8          O  0.42913527  0.79872337  0.38611617    -0.82300
O9          O  0.38626173  0.87678429  0.47806308    -0.85000
C10         C  0.49066906  0.90752770  0.40382403     0.95700
C11         C  0.42099172  0.88593536  0.35260259     1.03200
O12         O  0.42135937  0.86180723  0.42166135    -1.14000
O13         O  0.34887371  0.85421559  0.42328481    -0.76400
O14         O  0.36205097  0.90829069  0.42497614    -0.79900
O15         O  0.49400053  0.87609879  0.40838121    -0.80600
C16         C  0.34077922  0.88498661  0.42043611     0.94600
O17         O  0.42147496  0.91766084  0.46348312    -0.78600
O18         O  0.38848553  0.79429444  0.42086759    -0.83800
C19         C  0.45872953  0.80716253  0.46513491     0.97300
C20         C  0.40434942  0.78330419  0.39783441     1.03200
O21         O  0.47263539  0.81242450  0.43902082    -0.79400
C22         C  0.40148359  0.90455387  0.48282379     1.01500
Fe23       Fe  0.41212553  0.60589339  0.09857832     1.65800
Fe24       Fe  0.39180783  0.67943550  0.06771314     1.73200
Fe25       Fe  0.45461132  0.67651290  0.11990885     1.54400
O26         O  0.44127289  0.64972796  0.15944609    -0.83100
O27         O  0.43385520  0.69351585  0.04350340    -0.81500
O28         O  0.40438519  0.61062767  0.14397540    -0.85700
O29         O  0.46171996  0.59412385  0.10618269    -0.80500
O30         O  0.42169153  0.71380113  0.13419298    -0.82300
O31         O  0.38414841  0.63919889  0.03851338    -0.85000
C32         C  0.48962655  0.60898528  0.11016309     0.95700
C33         C  0.41915861  0.62705072  0.16479940     1.03200
O34         O  0.42026591  0.65397433  0.09540743    -1.14000
O35         O  0.34921522  0.66583098  0.09215625    -0.76400
O36         O  0.36035467  0.61077644  0.09290113    -0.79900
O37         O  0.49210800  0.64102804  0.11065884    -0.80600
C38         C  0.34003826  0.63537767  0.09629888     0.94600
O39         O  0.41914244  0.59856928  0.05267095    -0.78600
O40         O  0.39399829  0.72430319  0.09139119    -0.83800
C41         C  0.45958736  0.70883954  0.05388042     0.97300
C42         C  0.40350505  0.73278325  0.11783341     1.03200
O43         O  0.46935458  0.70632411  0.08178882    -0.79400
C44         C  0.39849632  0.61106442  0.03387739     1.01500
Fe45       Fe  0.38618773  0.57562577  0.35301820     1.65800
Fe46       Fe  0.31161914  0.60575374  0.32650987     1.73200
Fe47       Fe  0.31259899  0.53494746  0.36946372     1.54400
O48         O  0.35260629  0.50075298  0.36869821    -0.83100
O49         O  0.27796872  0.61434858  0.36122420    -0.81500
O50         O  0.39387793  0.52550587  0.34300631    -0.85700
O51         O  0.38378073  0.56461308  0.39895608    -0.80500
O52         O  0.29368598  0.51806476  0.32765916    -0.82300
O53         O  0.33835451  0.64658608  0.34282718    -0.85000
C54         C  0.36046625  0.55946245  0.41842783     0.95700
C55         C  0.38256788  0.50097354  0.35856994     1.03200
O56         O  0.33706375  0.57210724  0.34941880    -1.14000
O57         O  0.34284520  0.60138285  0.28969295    -0.76400
O58         O  0.39361923  0.58746894  0.30750368    -0.79900
O59         O  0.33037124  0.55156149  0.41117847    -0.80600
C60         C  0.37407197  0.59623914  0.28602732     0.94600
O61         O  0.38504212  0.62625605  0.36395864    -0.78600
O62         O  0.28164752  0.56865668  0.30717528    -0.83800
C63         C  0.25975314  0.59287415  0.37473620     0.97300
C64         C  0.27928060  0.53655648  0.30757141     1.03200
O65         O  0.26817785  0.56198567  0.37631708    -0.79400
C66         C  0.36567728  0.65062660  0.35725354     1.01500
Fe67       Fe  0.08439314  0.57992502  0.16254570     1.65800
Fe68       Fe  0.15746917  0.60864825  0.19262274     1.73200
Fe69       Fe  0.15770942  0.53874460  0.14857647     1.54400
O70         O  0.11711713  0.50525540  0.14894925    -0.83100
O71         O  0.19203769  0.61823675  0.15856867    -0.81500
O72         O  0.07625385  0.53056436  0.17482076    -0.85700
O73         O  0.08749946  0.56617124  0.11718711    -0.80500
O74         O  0.17560770  0.52123446  0.19057383    -0.82300
O75         O  0.13024589  0.64986500  0.17673320    -0.85000
C76         C  0.11154977  0.56256070  0.09826036     0.95700
C77         C  0.08713851  0.50592059  0.15915588     1.03200
O78         O  0.13304389  0.57572227  0.16821619    -1.14000
O79         O  0.12519929  0.60238815  0.22860160    -0.76400
O80         O  0.07486796  0.59470093  0.20728475    -0.79900
O81         O  0.14159999  0.55582108  0.10636153    -0.80600
C82         C  0.09341279  0.60034261  0.23029839     0.94600
O83         O  0.08831975  0.62935360  0.14865773    -0.78600
O84         O  0.18767763  0.57133500  0.21172364    -0.83800
C85         C  0.20986747  0.59707876  0.14410536     0.97300
C86         C  0.19010542  0.53924203  0.21086555     1.03200
O87         O  0.20181083  0.56609398  0.14252572    -0.79400
C88         C  0.10596491  0.65380174  0.15822246     1.01500
Fe89       Fe  0.06410645  0.91357821  0.09812067     1.65800
Fe90       Fe  0.08352052  0.84086120  0.06555872     1.73200
Fe91       Fe  0.02056629  0.84329907  0.11778445     1.54400
O92         O  0.03383748  0.86994910  0.15768247    -0.83100
O93         O  0.04163169  0.82720386  0.04135983    -0.81500
O94         O  0.07378799  0.90645876  0.14292658    -0.85700
O95         O  0.01531683  0.92548294  0.10971172    -0.80500
O96         O  0.05303415  0.80566213  0.13181080    -0.82300
O97         O  0.09007615  0.88197192  0.03700768    -0.85000
C98         C  0.98731061  0.91060246  0.11317877     0.95700
C99         C  0.05705917  0.89139002  0.16357137     1.03200
O100        O  0.05531971  0.86579390  0.09376612    -1.14000
O101        O  0.12636187  0.85409658  0.08966486    -0.76400
O102        O  0.11538501  0.90903270  0.08963935    -0.79900
O103        O  0.98384619  0.87921439  0.10810857    -0.80600
C104        C  0.13571044  0.88455643  0.09324085     0.94600
O105        O  0.05525658  0.92238901  0.05262273    -0.78600
O106        O  0.08141649  0.79556952  0.08901192    -0.83800
C107        C  0.01555014  0.81210345  0.05139119     0.97300
C108        C  0.07149951  0.78692152  0.11540984     1.03200
O109        O  0.00572561  0.81403785  0.07939111    -0.79400
C110        C  0.07554144  0.91022231  0.03310709     1.01500
Fe111      Fe  0.05350002  0.60806992  0.41808480     1.65800
Fe112      Fe  0.07933518  0.68152332  0.44625535     1.73200
Fe113      Fe  0.01340233  0.68073647  0.39670871     1.54400
O114        O  0.02555120  0.65457004  0.35649107    -0.83100
O115        O  0.03928890  0.69816113  0.47191077    -0.81500
O116        O  0.05699901  0.61081682  0.37194616    -0.85700
O117        O  0.00292340  0.59814279  0.41469328    -0.80500
O118        O  0.04576318  0.71843052  0.38183747    -0.82300
O119        O  0.08723301  0.64195392  0.47613054    -0.85000
C120        C  0.97590625  0.61396659  0.40899564     0.95700
C121        C  0.04454102  0.62918370  0.35108667     1.03200
O122        O  0.04808343  0.65684795  0.42026456    -1.14000
O123        O  0.12011588  0.66517372  0.42067071    -0.76400
O124        O  0.10577757  0.61080411  0.41952817    -0.79900
O125        O  0.97510603  0.64590678  0.40577664    -0.80600
C126        C  0.12747206  0.63423101  0.41626078     0.94600
O127        O  0.05072976  0.60182099  0.46471180    -0.78600
O128        O  0.07810086  0.72627103  0.42225583    -0.83800
C129        C  0.01237602  0.71273337  0.46306489     0.97300
C130        C  0.06612311  0.73616400  0.39709650     1.03200
O131        O  0.00041435  0.70975704  0.43587186    -0.79400
C132        C  0.07275136  0.61427346  0.48220029     1.01500
Fe133      Fe  0.38944672  0.93964475  0.16464125     1.65800
Fe134      Fe  0.31447097  0.91099581  0.19076374     1.73200
Fe135      Fe  0.31755765  0.98133278  0.14767527     1.54400
O136        O  0.35851197  0.01455248  0.14936078    -0.83100
O137        O  0.28331191  0.90150745  0.15448043    -0.81500
O138        O  0.39689588  0.98895377  0.17765149    -0.85700
O139        O  0.38926456  0.95373222  0.11911989    -0.80500
O140        O  0.29811819  0.99856804  0.18913277    -0.82300
O141        O  0.34306547  0.86978903  0.17725499    -0.85000
C142        C  0.36603343  0.95700178  0.09941200     0.95700
C143        C  0.38757849  0.01382123  0.16140481     1.03200
O144        O  0.34070501  0.94401997  0.16799158    -1.14000
O145        O  0.34356187  0.91730002  0.22846109    -0.76400
O146        O  0.39541561  0.92424152  0.20978590    -0.79900
O147        O  0.33570565  0.96412667  0.10645228    -0.80600
C148        C  0.37521946  0.91827407  0.23176787     0.94600
O149        O  0.38614383  0.89030178  0.15027897    -0.78600
O150        O  0.28256699  0.94811361  0.20773445    -0.83800
C151        C  0.26560539  0.92304851  0.14047057     0.97300
C152        C  0.28153202  0.98028010  0.20796429     1.03200
O153        O  0.27335721  0.95422061  0.14013097    -0.79400
C154        C  0.36820504  0.86588303  0.15963288     1.01500
Fe155      Fe  0.08588281  0.94460727  0.35303821     1.65800
Fe156      Fe  0.15962140  0.91336121  0.32594181     1.73200
Fe157      Fe  0.15966307  0.98476558  0.36734939     1.54400
O158        O  0.11996236  0.01912030  0.36602850    -0.83100
O159        O  0.19178774  0.90400873  0.36173536    -0.81500
O160        O  0.07899646  0.99421194  0.34037993    -0.85700
O161        O  0.08818986  0.95862141  0.39844494    -0.80500
O162        O  0.17810249  0.00045485  0.32505382    -0.82300
O163        O  0.13036383  0.87311678  0.34084065    -0.85000
C164        C  0.11203192  0.96281102  0.41740725     0.95700
C165        C  0.09020717  0.01900865  0.35559069     1.03200
O166        O  0.13477086  0.94757194  0.34856297    -1.14000
O167        O  0.12960040  0.91975062  0.28881096    -0.76400
O168        O  0.07831611  0.92978870  0.30793875    -0.79900
O169        O  0.14224916  0.96933641  0.40946380    -0.80600
C170        C  0.09804860  0.92295738  0.28582150     0.94600
O171        O  0.08754419  0.89489827  0.36722028    -0.78600
O172        O  0.19182346  0.94924112  0.30716168    -0.83800
C173        C  0.21049354  0.92555249  0.37461304     0.97300
C174        C  0.19334404  0.98136998  0.30601003     1.03200
O175        O  0.20338089  0.95684601  0.37435482    -0.79400
C176        C  0.10472810  0.86987433  0.35800194     1.01500
Fe177      Fe  0.58253981  0.43209033  0.16612584     1.65800
Fe178      Fe  0.65583575  0.41013499  0.19592592     1.73200
Fe179      Fe  0.65246590  0.47781391  0.14772843     1.54400
O180        O  0.62750079  0.46389804  0.10689957    -0.83100
O181        O  0.67289114  0.45025902  0.22134392    -0.81500
O182        O  0.58948357  0.42466836  0.12092474    -0.85700
O183        O  0.56983170  0.48136116  0.15650035    -0.80500
O184        O  0.69279708  0.44898273  0.13358241    -0.82300
O185        O  0.61591056  0.40404593  0.22612088    -0.85000
C186        C  0.58411956  0.50974067  0.15334299     0.95700
C187        C  0.60606924  0.44063742  0.10069916     1.03200
O188        O  0.63056722  0.44082584  0.17007512    -1.14000
O189        O  0.64065430  0.36885058  0.17071093    -0.76400
O190        O  0.58616833  0.38001701  0.17245918    -0.79900
O191        O  0.61544897  0.51344316  0.15751789    -0.80600
C192        C  0.61031948  0.35976749  0.16738628     0.94600
O193        O  0.57452883  0.43866443  0.21216538    -0.78600
O194        O  0.69921389  0.41062971  0.17016771    -0.83800
C195        C  0.68430258  0.47915604  0.21364961     0.97300
C196        C  0.70941283  0.42566657  0.14636661     1.03200
O197        O  0.67971384  0.49235887  0.18711907    -0.79400
C198        C  0.58773320  0.41832580  0.23112240     1.01500
Fe199      Fe  0.88550985  0.43924349  0.34978336     1.65800
Fe200      Fe  0.81313655  0.41544815  0.31956723     1.73200
Fe201      Fe  0.81392062  0.48193163  0.36895884     1.54400
O202        O  0.83971165  0.46840193  0.40926759    -0.83100
O203        O  0.79484634  0.45558901  0.29471642    -0.81500
O204        O  0.87874517  0.43037573  0.39477327    -0.85700
O205        O  0.89646695  0.48865509  0.36050569    -0.80500
O206        O  0.77476708  0.45098314  0.38289352    -0.82300
O207        O  0.85336235  0.41118041  0.28950357    -0.85000
C208        C  0.88114803  0.51641169  0.36426399     0.95700
C209        C  0.86178096  0.44566316  0.41511562     1.03200
O210        O  0.83722130  0.44639564  0.34594232    -1.14000
O211        O  0.82964643  0.37402213  0.34427327    -0.76400
O212        O  0.88361470  0.38732328  0.34257673    -0.79900
O213        O  0.84972823  0.51919929  0.35968786    -0.80600
C214        C  0.86033621  0.36604278  0.34755197     0.94600
O215        O  0.89337054  0.44713175  0.30381674    -0.78600
O216        O  0.76956811  0.41420441  0.34500984    -0.83800
C217        C  0.78142532  0.48326241  0.30332823     0.97300
C218        C  0.75875568  0.42781267  0.36926607     1.03200
O219        O  0.78556997  0.49596366  0.33007335    -0.79400
C220        C  0.88102322  0.42648681  0.28470797     1.01500
Fe221      Fe  0.91730081  0.41381657  0.10211859     1.65800
Fe222      Fe  0.88962635  0.33756043  0.07673855     1.73200
Fe223      Fe  0.95972336  0.34135559  0.11966601     1.54400
O224        O  0.99261926  0.38201748  0.11805150    -0.83100
O225        O  0.88189802  0.30453051  0.11203574    -0.81500
O226        O  0.96713884  0.42282392  0.09231371    -0.85700
O227        O  0.92770814  0.41272035  0.14833299    -0.80500
O228        O  0.97734366  0.32175632  0.07822449    -0.82300
O229        O  0.84820466  0.36343079  0.09278191    -0.85000
C230        C  0.93326818  0.38972830  0.16807026     0.95700
C231        C  0.99177860  0.41193051  0.10777142     1.03200
O232        O  0.92226848  0.36453568  0.09918688    -1.14000
O233        O  0.89288105  0.36830188  0.03944609    -0.76400
O234        O  0.90566109  0.41989919  0.05630977    -0.79900
O235        O  0.94235915  0.35973970  0.16110431    -0.80600
C236        C  0.89685864  0.39973753  0.03521700     0.94600
O237        O  0.86677879  0.41150938  0.11288300    -0.78600
O238        O  0.92745961  0.30793186  0.05787057    -0.83800
C239        C  0.90358150  0.28737381  0.12620508     0.97300
C240        C  0.95948057  0.30619917  0.05847294     1.03200
O241        O  0.93411404  0.29647291  0.12750169    -0.79400
C242        C  0.84324255  0.39104334  0.10668708     1.01500
Fe243      Fe  0.92391984  0.10975385  0.41528995     1.65800
Fe244      Fe  0.89235345  0.18330939  0.44341671     1.73200
Fe245      Fe  0.96178387  0.18475276  0.39887427     1.54400
O246        O  0.99679695  0.14535705  0.39807557    -0.83100
O247        O  0.88198590  0.21757589  0.40927006    -0.81500
O248        O  0.97397410  0.10406998  0.42512791    -0.85700
O249        O  0.93438821  0.11286096  0.36919810    -0.80500
O250        O  0.97916606  0.20354314  0.44059417    -0.82300
O251        O  0.85223707  0.15511585  0.42763099    -0.85000
C252        C  0.93720084  0.13684562  0.34997071     0.95700
C253        C  0.99731467  0.11533534  0.40822945     1.03200
O254        O  0.92594358  0.15905596  0.41942413    -1.14000
O255        O  0.89862644  0.15156834  0.47981582    -0.76400
O256        O  0.91269923  0.10121217  0.46072326    -0.79900
O257        O  0.94417934  0.16720559  0.35742332    -0.80600
C258        C  0.90427876  0.12021892  0.48276800     0.94600
O259        O  0.87351553  0.10958558  0.40479208    -0.78600
O260        O  0.92895974  0.21414901  0.46233350    -0.83800
C261        C  0.90262514  0.23611897  0.39496847     0.97300
C262        C  0.96089371  0.21716011  0.46135814     1.03200
O263        O  0.93359291  0.22852850  0.39308676    -0.79400
C264        C  0.84877027  0.12791380  0.41263139     1.01500
Fe265      Fe  0.59059693  0.06996051  0.35159234     1.65800
Fe266      Fe  0.66537895  0.10097286  0.32729176     1.73200
Fe267      Fe  0.66342921  0.02912042  0.36810408     1.54400
O268        O  0.64633233  0.04640484  0.40979074    -0.83100
O269        O  0.69572436  0.06390581  0.30778232    -0.81500
O270        O  0.59241170  0.05744709  0.39775781    -0.85700
O271        O  0.58469452  0.02025264  0.33931713    -0.80500
O272        O  0.70864958  0.05477614  0.37392670    -0.82300
O273        O  0.63560434  0.09799379  0.28959567    -0.85000
C274        C  0.59407560  0.99578839  0.35587461     0.95700
C275        C  0.61609817  0.05393360  0.41717086     1.03200
O276        O  0.63948424  0.06684860  0.34871636    -1.14000
O277        O  0.63768319  0.14135547  0.34366604    -0.76400
O278        O  0.59072666  0.12028206  0.36396474    -0.79900
O279        O  0.62292269  0.99568284  0.36809839    -0.80600
C280        C  0.60980495  0.14503825  0.35755189     0.94600
O281        O  0.58435719  0.08350810  0.30604146    -0.78600
O282        O  0.69730506  0.10805948  0.36340643    -0.83800
C283        C  0.69649214  0.03168065  0.30663897     0.97300
C284        C  0.71647451  0.08579297  0.37444854     1.03200
O285        O  0.68103530  0.01273951  0.32579174    -0.79400
C286        C  0.60447305  0.09322377  0.28510999     1.01500
Fe287      Fe  0.89289945  0.08187089  0.17049601     1.65800
Fe288      Fe  0.81793397  0.10565402  0.19673485     1.73200
Fe289      Fe  0.82291265  0.03888533  0.14764618     1.54400
O290        O  0.85062213  0.05195119  0.10845778    -0.83100
O291        O  0.79916989  0.06536979  0.22086868    -0.81500
O292        O  0.89082573  0.08738984  0.12464359    -0.85700
O293        O  0.90450062  0.03179071  0.16502352    -0.80500
O294        O  0.78518149  0.06977150  0.13162042    -0.82300
O295        O  0.85563512  0.11187893  0.22876746    -0.85000
C296        C  0.88972948  0.00399006  0.16016770     0.95700
C297        C  0.87438512  0.07308682  0.10353019     1.03200
O298        O  0.84441612  0.07479736  0.17164460    -1.14000
O299        O  0.83526118  0.14699095  0.17298075    -0.76400
O300        O  0.88959466  0.13414734  0.17419221    -0.79900
O301        O  0.85795736  0.00179555  0.15824442    -0.80600
C302        C  0.86592618  0.15525027  0.17003955     0.94600
O303        O  0.89737170  0.07698042  0.21688865    -0.78600
O304        O  0.77613451  0.10613051  0.16916445    -0.83800
C305        C  0.78757799  0.03699822  0.21213969     0.97300
C306        C  0.76795658  0.09292347  0.14397797     1.03200
O307        O  0.79285976  0.02453667  0.18546863    -0.79400
C308        C  0.88352457  0.09781796  0.23487298     1.01500
Fe309      Fe  0.55083983  0.40725432  0.41313416     1.65800
Fe310      Fe  0.58171120  0.33227156  0.43842476     1.73200
Fe311      Fe  0.51042487  0.33325547  0.39712050     1.54400
O312        O  0.47654926  0.37362913  0.39729605    -0.83100
O313        O  0.58915393  0.29869309  0.40337628    -0.81500
O314        O  0.50095249  0.41405416  0.42393740    -0.85700
O315        O  0.53964093  0.40479503  0.36698338    -0.80500
O316        O  0.49394742  0.31448829  0.43930105    -0.82300
O317        O  0.62189756  0.35910951  0.42080988    -0.85000
C318        C  0.53531299  0.38105743  0.34772067     0.95700
C319        C  0.47679780  0.40346606  0.40779516     1.03200
O320        O  0.54766450  0.35789276  0.41657029    -1.14000
O321        O  0.57887621  0.36357360  0.47545521    -0.76400
O322        O  0.56303611  0.41444488  0.45872575    -0.79900
O323        O  0.52745935  0.35083549  0.35525678    -0.80600
C324        C  0.57333166  0.39478278  0.47970822     0.94600
O325        O  0.60136649  0.40710689  0.40183665    -0.78600
O326        O  0.54487121  0.30219675  0.45863794    -0.83800
C327        C  0.56721278  0.27956387  0.39190105     0.97300
C328        C  0.51284901  0.29953054  0.45876167     1.03200
O329        O  0.53645812  0.28801018  0.39103477    -0.79400
C330        C  0.62566796  0.38725283  0.40735784     1.01500
Fe331      Fe  0.56774492  0.10258286  0.09846005     1.65800
Fe332      Fe  0.58802791  0.17661074  0.06820499     1.73200
Fe333      Fe  0.52153667  0.17190989  0.11734742     1.54400
O334        O  0.48642733  0.13432154  0.10777962    -0.83100
O335        O  0.58790562  0.21986896  0.09453801    -0.81500
O336        O  0.51917598  0.08915298  0.10954939    -0.85700
O337        O  0.57655910  0.10992478  0.14343551    -0.80500
O338        O  0.50624400  0.19996710  0.07839571    -0.82300
O339        O  0.62962961  0.16143185  0.09262918    -0.85000
C340        C  0.56000325  0.12578527  0.16373345     0.95700
C341        C  0.49063575  0.10298095  0.11268815     1.03200
O342        O  0.55820854  0.15062741  0.09440457    -1.14000
O343        O  0.59353279  0.13661133  0.03775527    -0.76400
O344        O  0.55990944  0.09458064  0.05269191    -0.79900
O345        O  0.53596157  0.14635165  0.15766420    -0.80600
C346        C  0.57956494  0.10808360  0.03324437     0.94600
O347        O  0.61916785  0.10671589  0.09038555    -0.78600
O348        O  0.54764755  0.19386153  0.04350328    -0.83800
C349        C  0.57381177  0.22907178  0.11917179     0.97300
C350        C  0.51895884  0.20507986  0.05171306     1.03200
O351        O  0.55061531  0.21197670  0.13170691    -0.79400
C352        C  0.63907398  0.13105960  0.09540814     1.01500
C353        C  0.49779983  0.24169195  0.47522884    -0.14800
C354        C  0.49879402  0.27633244  0.48202112     0.07300
C355        C  0.49798839  0.28636237  0.01282599    -0.14800
C356        C  0.49919462  0.26218821  0.03636231    -0.14800
C357        C  0.50217817  0.22765913  0.02941934     0.07300
C358        C  0.49976190  0.21757734  0.99868757    -0.14800
H359        H  0.49953120  0.23331889  0.45169058     0.11300
H360        H  0.49994443  0.31287568  0.01863484     0.11300
H361        H  0.50205134  0.27072389  0.05973859     0.11300
H362        H  0.50283813  0.19122420  0.49265580     0.11300
C363        C  0.72026529  0.08358243  0.10784607    -0.14800
C364        C  0.73666308  0.10439922  0.12906396     0.07300
C365        C  0.72183252  0.13538055  0.13724856    -0.14800
C366        C  0.69076411  0.14490894  0.12508230    -0.14800
C367        C  0.67371931  0.12331945  0.10500415     0.07300
C368        C  0.68891457  0.09280135  0.09617729    -0.14800
H369        H  0.73103748  0.05955434  0.10116885     0.11300
H370        H  0.73398302  0.15199678  0.15346817     0.11300
H371        H  0.67940318  0.16844238  0.13239124     0.11300
H372        H  0.67624372  0.07577977  0.08063576     0.11300
C373        C  0.55461031  0.21881761  0.38133182    -0.14800
C374        C  0.57757512  0.24578509  0.38091555     0.07300
C375        C  0.61115574  0.23946109  0.37251924    -0.14800
C376        C  0.62160172  0.20680457  0.36483785    -0.14800
C377        C  0.59882785  0.17963734  0.36592757     0.07300
C378        C  0.56517185  0.18605901  0.37414959    -0.14800
H379        H  0.52867360  0.22286898  0.38811577     0.11300
H380        H  0.62941782  0.25976268  0.37209753     0.11300
H381        H  0.64765484  0.20276586  0.35845279     0.11300
H382        H  0.54691853  0.16576915  0.37494748     0.11300
C383        C  0.70657698  0.01979260  0.25180912    -0.14800
C384        C  0.71758151  0.01725825  0.28221542     0.07300
C385        C  0.75197698  0.01253386  0.28793838    -0.14800
C386        C  0.77535730  0.01426790  0.26393892    -0.14800
C387        C  0.76458623  0.02016198  0.23383993     0.07300
C388        C  0.72992744  0.02082517  0.22771901    -0.14800
H389        H  0.68028045  0.02462187  0.24697708     0.11300
H390        H  0.76107905  0.01162947  0.31125502     0.11300
H391        H  0.80196000  0.01456408  0.26926961     0.11300
H392        H  0.72107277  0.02643376  0.20485552     0.11300
C393        C  0.57484393  0.05767974  0.46026565    -0.14800
C394        C  0.60800547  0.06128751  0.44927174     0.07300
C395        C  0.63213880  0.07705852  0.46760827    -0.14800
C396        C  0.62268181  0.09146170  0.49534158    -0.14800
C397        C  0.58914872  0.08966093  0.00549716     0.07300
C398        C  0.56555512  0.07142572  0.98850117    -0.14800
H399        H  0.55584884  0.04544906  0.44645670     0.11300
H400        H  0.65776827  0.08030480  0.45958594     0.11300
H401        H  0.64143618  0.10484993  0.00855167     0.11300
H402        H  0.53968949  0.06946388  0.99620409     0.11300
C403        C  0.61477924  0.10232180  0.22988204    -0.14800
C404        C  0.59174443  0.10046893  0.25420410     0.07300
C405        C  0.55768348  0.10824803  0.24890733    -0.14800
C406        C  0.54700276  0.11788178  0.21961729    -0.14800
C407        C  0.57026343  0.11934314  0.19542870     0.07300
C408        C  0.60417706  0.11161403  0.20092475    -0.14800
H409        H  0.64118818  0.09660107  0.23319204     0.11300
H410        H  0.53952979  0.10740619  0.26742554     0.11300
H411        H  0.52066583  0.12339027  0.21571696     0.11300
H412        H  0.62265839  0.11262817  0.18264443     0.11300
C413        C  0.88520798  0.07369926  0.51741606    -0.14800
C414        C  0.89990676  0.10568847  0.51327548     0.07300
C415        C  0.90722529  0.12570336  0.03868192    -0.14800
C416        C  0.89924553  0.11448206  0.06780362    -0.14800
C417        C  0.88341393  0.08308469  0.07220641     0.07300
C418        C  0.87664951  0.06253963  0.04684106    -0.14800
H419        H  0.87908188  0.05808805  0.49789618     0.11300
H420        H  0.91853997  0.15043785  0.03595217     0.11300
H421        H  0.90467741  0.13099884  0.08689160     0.11300
H422        H  0.86466791  0.03817694  0.04975393     0.11300
C423        C  0.93405929  0.09531840  0.30747571    -0.14800
C424        C  0.92965743  0.12859030  0.31808625     0.07300
C425        C  0.91267545  0.15211928  0.29988437    -0.14800
C426        C  0.89808111  0.14189765  0.27254300    -0.14800
C427        C  0.90087931  0.10821779  0.26276212     0.07300
C428        C  0.92006270  0.08528131  0.27973022    -0.14800
H429        H  0.94716916  0.07676623  0.32124688     0.11300
H430        H  0.90876663  0.17777599  0.30772113     0.11300
H431        H  0.88400044  0.16018392  0.25928088     0.11300
H432        H  0.92284406  0.05934359  0.27228174     0.11300
C433        C  0.80824676  0.08302275  0.39664250    -0.14800
C434        C  0.81452027  0.11694179  0.40414349     0.07300
C435        C  0.78778134  0.14015980  0.40352072    -0.14800
C436        C  0.75565290  0.12988386  0.39459068    -0.14800
C437        C  0.74951746  0.09607212  0.38664646     0.07300
C438        C  0.77601159  0.07263972  0.38821276    -0.14800
H439        H  0.82829494  0.06448606  0.39722259     0.11300
H440        H  0.79186089  0.16644008  0.40925731     0.11300
H441        H  0.73568036  0.14847892  0.39357966     0.11300
H442        H  0.77208297  0.04647024  0.38198636     0.11300
C443        C  0.85943039  0.24461027  0.13969176    -0.14800
C444        C  0.89326156  0.25506456  0.14040028     0.07300
C445        C  0.91750832  0.23326028  0.15284944    -0.14800
C446        C  0.90839426  0.20118332  0.16317333    -0.14800
C447        C  0.87479884  0.19025113  0.16145431     0.07300
C448        C  0.85027501  0.21254413  0.15019793    -0.14800
H449        H  0.84011144  0.26087058  0.13030599     0.11300
H450        H  0.94375166  0.24054769  0.15378014     0.11300
H451        H  0.92784554  0.18469555  0.17199407     0.11300
H452        H  0.82418404  0.20485295  0.14862920     0.11300
C453        C  0.97938215  0.29565336  0.00530941    -0.14800
C454        C  0.97492835  0.28384050  0.03536762     0.07300
C455        C  0.97408005  0.24884628  0.04056987    -0.14800
C456        C  0.97432772  0.22620302  0.01597037    -0.14800
C457        C  0.97570061  0.23813988  0.48572941     0.07300
C458        C  0.97993029  0.27293440  0.48066156    -0.14800
H459        H  0.97886446  0.32252492  0.00063659     0.11300
H460        H  0.96945464  0.23918841  0.06340542     0.11300
H461        H  0.96988077  0.19964352  0.02042149     0.11300
H462        H  0.97979772  0.28283716  0.45754975     0.11300
C463        C  0.91497160  0.44162924  0.23840708    -0.14800
C464        C  0.89969739  0.41724986  0.25701456     0.07300
C465        C  0.90015945  0.38317000  0.24808845    -0.14800
C466        C  0.91382918  0.37374470  0.22003002    -0.14800
C467        C  0.92661527  0.39839481  0.20018853     0.07300
C468        C  0.92804526  0.43228985  0.20991612    -0.14800
H469        H  0.91498171  0.46797171  0.24505810     0.11300
H470        H  0.88889300  0.36391308  0.26248212     0.11300
H471        H  0.91227839  0.34755770  0.21302140     0.11300
H472        H  0.93797022  0.45172837  0.19493903     0.11300
C473        C  0.87147205  0.45834422  0.47060451    -0.14800
C474        C  0.86864449  0.43513630  0.44657050     0.07300
C475        C  0.87605432  0.40097281  0.45171025    -0.14800
C476        C  0.88627188  0.38998601  0.48025964    -0.14800
C477        C  0.88931630  0.41289328  0.00451274     0.07300
C478        C  0.88195232  0.44726106  0.99951463    -0.14800
H479        H  0.86639426  0.48490176  0.46683492     0.11300
H480        H  0.87412919  0.38262766  0.43341409     0.11300
H481        H  0.89162587  0.36336272  0.48332357     0.11300
H482        H  0.88374257  0.46534769  0.01798847     0.11300
C483        C  0.90346995  0.32070299  0.35430559    -0.14800
C484        C  0.86990800  0.33146965  0.35736413     0.07300
C485        C  0.84656163  0.30975988  0.37150339    -0.14800
C486        C  0.85689359  0.27841228  0.38318793    -0.14800
C487        C  0.89073608  0.26809027  0.38078740     0.07300
C488        C  0.91371547  0.28944172  0.36576467    -0.14800
H489        H  0.92208041  0.33671523  0.34339535     0.11300
H490        H  0.82056917  0.31742060  0.37435049     0.11300
H491        H  0.83852121  0.26258187  0.39462749     0.11300
H492        H  0.93991780  0.28234401  0.36337743     0.11300
C493        C  0.71385490  0.38399806  0.37496785    -0.14800
C494        C  0.72564432  0.41677139  0.38112157     0.07300
C495        C  0.70436022  0.43963663  0.39633324    -0.14800
C496        C  0.67156207  0.43018259  0.40441681    -0.14800
C497        C  0.65989833  0.39744064  0.39820668     0.07300
C498        C  0.68145056  0.37426405  0.38386502    -0.14800
H499        H  0.72970248  0.36591784  0.36316992     0.11300
H500        H  0.71268635  0.46514297  0.40104453     0.11300
H501        H  0.65537973  0.44831212  0.41577376     0.11300
H502        H  0.67292270  0.34886633  0.37894298     0.11300
C503        C  0.75303917  0.38260107  0.13344093    -0.14800
C504        C  0.74262689  0.41647185  0.13399939     0.07300
C505        C  0.76522866  0.44187086  0.12504016    -0.14800
C506        C  0.79811149  0.43360919  0.11644225    -0.14800
C507        C  0.80857837  0.39973646  0.11584412     0.07300
C508        C  0.78561269  0.37424353  0.12393276    -0.14800
H509        H  0.73598610  0.36267004  0.14043971     0.11300
H510        H  0.75779052  0.46818936  0.12573010     0.11300
H511        H  0.81531883  0.45366333  0.11009565     0.11300
H512        H  0.79314584  0.34794364  0.12366865     0.11300
C513        C  0.72256073  0.49690095  0.29005567    -0.14800
C514        C  0.75676378  0.49814542  0.28191665     0.07300
C515        C  0.76534203  0.50232099  0.25091258    -0.14800
C516        C  0.74039043  0.50165345  0.22826210    -0.14800
C517        C  0.70663662  0.49559945  0.23623703     0.07300
C518        C  0.69774867  0.49509836  0.26739872    -0.14800
H519        H  0.71529765  0.49280971  0.31368466     0.11300
H520        H  0.79155339  0.50261853  0.24401234     0.11300
H521        H  0.74803695  0.50142560  0.20445667     0.11300
H522        H  0.67200678  0.48988509  0.27415980     0.11300
C523        C  0.57099991  0.31060919  0.16429228    -0.14800
C524        C  0.60241312  0.32503332  0.15728407     0.07300
C525        C  0.62511672  0.30687533  0.13889937    -0.14800
C526        C  0.61602913  0.27546456  0.12679225    -0.14800
C527        C  0.58434859  0.26130385  0.13338507     0.07300
C528        C  0.56220284  0.27893598  0.15273760    -0.14800
H529        H  0.55304257  0.32401887  0.17848487     0.11300
H530        H  0.64940405  0.31750164  0.13299080     0.11300
H531        H  0.63368007  0.26237330  0.11205514     0.11300
H532        H  0.53760201  0.26873987  0.15816135     0.11300
C533        C  0.59955744  0.45300148  0.04436549    -0.14800
C534        C  0.59942963  0.43021934  0.06899968     0.07300
C535        C  0.58982339  0.39654289  0.06399677    -0.14800
C536        C  0.58038837  0.38569297  0.03519209    -0.14800
C537        C  0.58029071  0.40817291  0.51043960     0.07300
C538        C  0.58979518  0.44203932  0.01516652    -0.14800
H539        H  0.60648714  0.47916334  0.04781448     0.11300
H540        H  0.58953979  0.37835925  0.08255877     0.11300
H541        H  0.57328136  0.35947560  0.03229025     0.11300
H542        H  0.59032586  0.45973293  0.49625684     0.11300
C543        C  0.57186480  0.37483337  0.26904203    -0.14800
C544        C  0.56956052  0.40847568  0.25896723     0.07300
C545        C  0.55136433  0.43197015  0.27628925    -0.14800
C546        C  0.53806266  0.42246361  0.30467134    -0.14800
C547        C  0.54212587  0.38918913  0.31552172     0.07300
C548        C  0.55794163  0.36516753  0.29694836    -0.14800
H549        H  0.58531788  0.35615996  0.25564248     0.11300
H550        H  0.54910389  0.45793487  0.26872138     0.11300
H551        H  0.52583963  0.44139490  0.31871352     0.11300
H552        H  0.56159638  0.33949886  0.30490318     0.11300
C553        C  0.03262726  0.03768326  0.37020630    -0.14800
C554        C  0.06663048  0.04598431  0.36557895     0.07300
C555        C  0.07824134  0.07760246  0.37592353    -0.14800
C556        C  0.05611433  0.10043386  0.39029691    -0.14800
C557        C  0.02247186  0.09130338  0.39588654     0.07300
C558        C  0.01103089  0.05979416  0.38551219    -0.14800
H559        H  0.02295714  0.01333154  0.36319039     0.11300
H560        H  0.10445489  0.08447587  0.37317074     0.11300
H561        H  0.06533557  0.12490303  0.39744701     0.11300
H562        H  0.98495834  0.05250529  0.38863993     0.11300
C563        C  0.40382715  0.06904510  0.13572330    -0.14800
C564        C  0.41280489  0.04001779  0.15265773     0.07300
C565        C  0.44713579  0.03290213  0.15653769    -0.14800
C566        C  0.47171111  0.05312887  0.14292663    -0.14800
C567        C  0.46298926  0.08166099  0.12538580     0.07300
C568        C  0.42872277  0.08998516  0.12260868    -0.14800
H569        H  0.37758420  0.07507915  0.13197116     0.11300
H570        H  0.45518046  0.01067292  0.16900389     0.11300
H571        H  0.49784378  0.04634479  0.14634604     0.11300
H572        H  0.42119026  0.11210466  0.10974131     0.11300
C573        C  0.27128598  0.99972661  0.26107694    -0.14800
C574        C  0.25924957  0.99539291  0.23118755     0.07300
C575        C  0.22436085  0.99426095  0.22634742    -0.14800
C576        C  0.20201885  0.99428838  0.25119138    -0.14800
C577        C  0.21422233  0.99556782  0.28124309     0.07300
C578        C  0.24889496  0.99984829  0.28596566    -0.14800
H579        H  0.29811219  0.99937931  0.26542306     0.11300
H580        H  0.21459867  0.98970519  0.20361964     0.11300
H581        H  0.17551219  0.98984354  0.24707823     0.11300
H582        H  0.25893015  0.99967487  0.30896783     0.11300
C583        C  0.89904062  0.57822331  0.36866665    -0.14800
C584        C  0.90086954  0.54433018  0.37816680     0.07300
C585        C  0.92303742  0.53585786  0.40195910    -0.14800
C586        C  0.94480288  0.55975629  0.41431729    -0.14800
C587        C  0.94550798  0.59296477  0.40304566     0.07300
C588        C  0.92145821  0.60237471  0.38087869    -0.14800
H589        H  0.88181455  0.58554537  0.35070877     0.11300
H590        H  0.92426007  0.51016647  0.41049386     0.11300
H591        H  0.96269142  0.55159995  0.43145572     0.11300
H592        H  0.92158585  0.62767728  0.37144510     0.11300
C593        C  0.08249832  0.82996299  0.39737445    -0.14800
C594        C  0.09448341  0.83561296  0.36759446     0.07300
C595        C  0.09647620  0.80831414  0.34710150    -0.14800
C596        C  0.08642053  0.77588540  0.35625522    -0.14800
C597        C  0.07538924  0.77019030  0.38632376     0.07300
C598        C  0.07357383  0.79743933  0.40679678    -0.14800
H599        H  0.08072824  0.85059841  0.41354753     0.11300
H600        H  0.10539431  0.81219433  0.32392529     0.11300
H601        H  0.08798444  0.75517088  0.34016045     0.11300
H602        H  0.06488675  0.79356018  0.43005880     0.11300
C603        C  0.96901440  0.95419652  0.14986762    -0.14800
C604        C  0.95991469  0.93066230  0.12733870     0.07300
C605        C  0.92575423  0.92715301  0.11980276    -0.14800
C606        C  0.90166340  0.94916218  0.13269662    -0.14800
C607        C  0.91150038  0.97439520  0.15361413     0.07300
C608        C  0.94520875  0.97553210  0.16293516    -0.14800
H609        H  0.99499234  0.95665995  0.15701013     0.11300
H610        H  0.91803037  0.90876525  0.10292829     0.11300
H611        H  0.87589470  0.94792200  0.12480494     0.11300
H612        H  0.95364963  0.99440141  0.17910323     0.11300
C613        C  0.22364495  0.87797506  0.12644549    -0.14800
C614        C  0.23420867  0.91193572  0.12525970     0.07300
C615        C  0.21335539  0.93578871  0.11098900    -0.14800
C616        C  0.18206787  0.92635614  0.09952650    -0.14800
C617        C  0.17075454  0.89278910  0.10192121     0.07300
C618        C  0.19220484  0.86846793  0.11481134    -0.14800
H619        H  0.23920331  0.85892028  0.13719580     0.11300
H620        H  0.22072100  0.96207084  0.10946657     0.11300
H621        H  0.16631411  0.94570216  0.08944158     0.11300
H622        H  0.18416713  0.84244121  0.11699856     0.11300
C623        C  0.99730026  0.79671200  0.99863042    -0.14800
C624        C  0.99931199  0.78833549  0.02986765     0.07300
C625        C  0.99601868  0.75430510  0.03846653    -0.14800
C626        C  0.99569591  0.72889825  0.01614639    -0.14800
C627        C  0.99754703  0.73717025  0.48488325     0.07300
C628        C  0.99593749  0.77133465  0.47632844    -0.14800
H629        H  0.00026367  0.82271875  0.49135619     0.11300
H630        H  0.99816286  0.74706685  0.06228223     0.11300
H631        H  0.99748077  0.70276451  0.02334687     0.11300
H632        H  0.99809381  0.77844776  0.45246475     0.11300
C633        C  0.09475862  0.91945453  0.20066025    -0.14800
C634        C  0.06564807  0.90012715  0.19537251     0.07300
C635        C  0.04545993  0.89045407  0.22035097    -0.14800
C636        C  0.05480387  0.89946967  0.25014303    -0.14800
C637        C  0.08454776  0.91783213  0.25507110     0.07300
C638        C  0.10409323  0.92807964  0.23009101    -0.14800
H639        H  0.11093374  0.92752304  0.18204149     0.11300
H640        H  0.02277859  0.87582639  0.21688697     0.11300
H641        H  0.03965487  0.89098578  0.26930946     0.11300
H642        H  0.12713395  0.94223647  0.23340356     0.11300
C643        C  0.11890969  0.92804331  0.99623452    -0.14800
C644        C  0.08527471  0.92966422  0.00609845     0.07300
C645        C  0.06163112  0.94765551  0.98893361    -0.14800
C646        C  0.07097601  0.96105616  0.46058720    -0.14800
C647        C  0.10415547  0.95713044  0.44971150     0.07300
C648        C  0.12837458  0.94196800  0.46836087    -0.14800
H649        H  0.13765394  0.91475922  0.00960110     0.11300
H650        H  0.03567486  0.94936521  0.99643418     0.11300
H651        H  0.05195022  0.97287684  0.44647185     0.11300
H652        H  0.15400123  0.93850768  0.46039938     0.11300
C653        C  0.07367342  0.44799886  0.13839987    -0.14800
C654        C  0.06296897  0.48006990  0.14834350     0.07300
C655        C  0.02948534  0.48977606  0.14295286    -0.14800
C656        C  0.00734309  0.46826838  0.12775182    -0.14800
C657        C  0.01772849  0.43603919  0.11824368     0.07300
C658        C  0.05100324  0.42584868  0.12412111    -0.14800
H659        H  0.09950867  0.44010517  0.14168506     0.11300
H660        H  0.02062077  0.51459886  0.14957823     0.11300
H661        H  0.98158668  0.47644360  0.12440972     0.11300
H662        H  0.05941089  0.40082528  0.11765702     0.11300
C663        C  0.09593127  0.59437657  0.28624260    -0.14800
C664        C  0.07804376  0.60510646  0.26053634     0.07300
C665        C  0.04760566  0.62280506  0.26438562    -0.14800
C666        C  0.03604265  0.63083574  0.29386640    -0.14800
C667        C  0.05454428  0.62054770  0.31956988     0.07300
C668        C  0.08427251  0.60180815  0.31533509    -0.14800
H669        H  0.11940776  0.58066498  0.28382229     0.11300
H670        H  0.03361028  0.63154296  0.24468959     0.11300
H671        H  0.01300942  0.64517477  0.29656375     0.11300
H672        H  0.09930322  0.59362698  0.33460119     0.11300
C673        C  0.11707977  0.59912346  0.01952064    -0.14800
C674        C  0.08351639  0.59612463  0.50976331     0.07300
C675        C  0.06071616  0.57715453  0.02716189    -0.14800
C676        C  0.07066308  0.56384772  0.05530169    -0.14800
C677        C  0.10369214  0.56877364  0.06597670     0.07300
C678        C  0.12719460  0.58525499  0.04730489    -0.14800
H679        H  0.13527490  0.61314312  0.50604703     0.11300
H680        H  0.03485105  0.57430183  0.01987049     0.11300
H681        H  0.05212997  0.55108889  0.06940602     0.11300
H682        H  0.15267073  0.58955305  0.05513961     0.11300
C683        C  0.08140349  0.69255888  0.11914651    -0.14800
C684        C  0.09775382  0.68813905  0.14731208     0.07300
C685        C  0.10568389  0.71670524  0.16496139    -0.14800
C686        C  0.09675068  0.74905360  0.15486929    -0.14800
C687        C  0.08075018  0.75325728  0.12661067     0.07300
C688        C  0.07338857  0.72488556  0.10871054    -0.14800
H689        H  0.07512590  0.67101899  0.10502254     0.11300
H690        H  0.11818680  0.71396249  0.18678773     0.11300
H691        H  0.10268663  0.77078727  0.16886688     0.11300
H692        H  0.06091762  0.72775519  0.08686085     0.11300
C693        C  0.43910986  0.48406714  0.37705076    -0.14800
C694        C  0.40632689  0.47439021  0.36895494     0.07300
C695        C  0.39588123  0.44114873  0.37540268    -0.14800
C696        C  0.41829289  0.41785542  0.38875955    -0.14800
C697        C  0.45091184  0.42794276  0.39731059     0.07300
C698        C  0.46086366  0.46137330  0.39138925    -0.14800
H699        H  0.44765739  0.50971095  0.37319261     0.11300
H700        H  0.37052500  0.43320188  0.36997994     0.11300
H701        H  0.41014301  0.39208151  0.39252069     0.11300
H702        H  0.48604884  0.46977739  0.39695801     0.11300
C703        C  0.17106045  0.58988710  0.40640140    -0.14800
C704        C  0.16217114  0.62430433  0.40735423     0.07300
C705        C  0.18642004  0.64850193  0.39910883    -0.14800
C706        C  0.21848952  0.63839128  0.38929460    -0.14800
C707        C  0.22704016  0.60389629  0.38776201     0.07300
C708        C  0.20307347  0.57983297  0.39683983    -0.14800
H709        H  0.15310601  0.57050707  0.41274375     0.11300
H710        H  0.18041229  0.67517584  0.39963155     0.11300
H711        H  0.23641730  0.65758974  0.38244898     0.11300
H712        H  0.20871478  0.55309308  0.39579647     0.11300
C713        C  0.22309583  0.51920333  0.28885239    -0.14800
C714        C  0.25788682  0.52184377  0.28351449     0.07300
C715        C  0.26964583  0.52218026  0.25318837    -0.14800
C716        C  0.24693062  0.52300035  0.22873062    -0.14800
C717        C  0.21209036  0.52380477  0.23419558     0.07300
C718        C  0.20034215  0.52039164  0.26437906    -0.14800
H719        H  0.21338851  0.52015050  0.31202536     0.11300
H720        H  0.29624643  0.52544454  0.24851794     0.12900
H721        H  0.25657757  0.52674612  0.20576303     0.11300
H722        H  0.17364037  0.52209701  0.26923067     0.11300
C723        C  0.51812633  0.55345405  0.10616694    -0.14800
C724        C  0.51905104  0.58693662  0.11657363     0.07300
C725        C  0.54412357  0.59612827  0.13777480    -0.14800
C726        C  0.56642952  0.57160373  0.14958658    -0.14800
C727        C  0.56335571  0.53760721  0.14072511     0.07300
C728        C  0.53973971  0.52921931  0.11815644    -0.14800
H729        H  0.49935856  0.54551333  0.08976266     0.11300
H730        H  0.54515700  0.62166672  0.14653898     0.11300
H731        H  0.58483385  0.57882932  0.16656197     0.11300
H732        H  0.53754709  0.50346665  0.11003731     0.11300
C733        C  0.35451757  0.59151308  0.99854000    -0.14800
C734        C  0.38862910  0.59212570  0.00678854     0.07300
C735        C  0.41267928  0.57671955  0.48804762    -0.14800
C736        C  0.40300073  0.56357220  0.45985532    -0.14800
C737        C  0.36912186  0.56521964  0.45054398     0.07300
C738        C  0.34474171  0.57781410  0.47068900    -0.14800
H739        H  0.33558294  0.60283639  0.01319501     0.11300
H740        H  0.43903691  0.57679719  0.99429914     0.11300
H741        H  0.42221778  0.55368916  0.44467000     0.11300
H742        H  0.31856301  0.57940251  0.46399940     0.11300
C743        C  0.37741662  0.60398628  0.20105739    -0.14800
C744        C  0.40905276  0.61896893  0.19625540     0.07300
C745        C  0.43021160  0.62496788  0.22128852    -0.14800
C746        C  0.41964076  0.61602924  0.25078055    -0.14800
C747        C  0.38767795  0.60163725  0.25532157     0.07300
C748        C  0.36683648  0.59551611  0.23024445    -0.14800
H749        H  0.36043659  0.59923111  0.18221299     0.11300
H750        H  0.45475112  0.63633844  0.21803550     0.11300
H751        H  0.43583312  0.62136390  0.27004969     0.11300
H752        H  0.34205613  0.58454267  0.23327378     0.11300
C753        C  0.28459904  0.65127195  0.12031370    -0.14800
C754        C  0.30504401  0.62738282  0.10546373     0.07300
C755        C  0.29279181  0.59439552  0.10148055    -0.14800
C756        C  0.26148714  0.58501698  0.11317628    -0.14800
C757        C  0.24159510  0.60833934  0.12931361     0.07300
C758        C  0.25316754  0.64180128  0.13223116    -0.14800
H759        H  0.29344701  0.67684424  0.12377603     0.11300
H760        H  0.30778922  0.57547763  0.08984091     0.11300
H761        H  0.25328860  0.55915057  0.11020851     0.11300
H762        H  0.23837503  0.66043012  0.14443568     0.11300
C763        C  0.38533678  0.82614433  0.11860069    -0.14800
C764        C  0.37676806  0.83163300  0.14930462     0.07300
C765        C  0.37664983  0.80431494  0.16985308    -0.14800
C766        C  0.38578003  0.77197896  0.15987282    -0.14800
C767        C  0.39394432  0.76648442  0.12902372     0.07300
C768        C  0.39334746  0.79375081  0.10844853    -0.14800
H769        H  0.38541142  0.84688093  0.10239977     0.11300
H770        H  0.37017950  0.80816309  0.19368284     0.11300
H771        H  0.38603756  0.75124629  0.17605881     0.11300
H772        H  0.39978276  0.79009621  0.08457585     0.11300
C773        C  0.55277975  0.92090308  0.39619673    -0.14800
C774        C  0.51863361  0.92798521  0.39093132     0.07300
C775        C  0.51031830  0.95463835  0.37103626    -0.14800
C776        C  0.53515194  0.97467727  0.35773637    -0.14800
C777        C  0.56924674  0.96922926  0.36432875     0.07300
C778        C  0.57791052  0.94171203  0.38335191    -0.14800
H779        H  0.55993091  0.90011840  0.41093265     0.11300
H780        H  0.48428422  0.96014733  0.36566664     0.11300
H781        H  0.52736241  0.99557865  0.34339887     0.11300
H782        H  0.60397467  0.93694976  0.38908153     0.11300
C783        C  0.41897758  0.72591477  0.37911829    -0.14800
C784        C  0.39437799  0.75045699  0.38513336     0.07300
C785        C  0.36028397  0.74237735  0.38125997    -0.14800
C786        C  0.35091769  0.71011056  0.37147996    -0.14800
C787        C  0.37547678  0.68513349  0.36642583     0.07300
C788        C  0.40959459  0.69338983  0.37023072    -0.14800
H789        H  0.44539754  0.73157745  0.38235970     0.11300
H790        H  0.34095250  0.76099956  0.38592097     0.11300
H791        H  0.32444981  0.70440860  0.36868795     0.11300
H792        H  0.42903570  0.67469773  0.36625994     0.11300
C793        C  0.47311675  0.79327938  0.01905016    -0.14800
C794        C  0.47476796  0.78474167  0.48787537     0.07300
C795        C  0.48107639  0.75100579  0.47981710    -0.14800
C796        C  0.48071738  0.72566471  0.00226615    -0.14800
C797        C  0.47520561  0.73387720  0.03315346     0.07300
C798        C  0.47385813  0.76806645  0.04155317    -0.14800
H799        H  0.46766305  0.81902838  0.02581233     0.11300
H800        H  0.48172424  0.74367467  0.45595936     0.11300
H801        H  0.48123599  0.69946378  0.49518454     0.11300
H802        H  0.46881960  0.77504136  0.06508624     0.11300
C803        C  0.28332802  0.87024778  0.40045548    -0.14800
C804        C  0.30606891  0.89447583  0.41151391     0.07300
C805        C  0.29602471  0.92851823  0.41239089    -0.14800
C806        C  0.26454369  0.93831699  0.40144436    -0.14800
C807        C  0.24229417  0.91436235  0.38917400     0.07300
C808        C  0.25177722  0.88010045  0.38933275    -0.14800
H809        H  0.29030609  0.84382423  0.39950098     0.11300
H810        H  0.31280504  0.94782401  0.42098084     0.11300
H811        H  0.25806092  0.96488513  0.40183118     0.11300
H812        H  0.23518629  0.86097897  0.38013948     0.11300
C813        C  0.37693783  0.90209608  0.31616890    -0.14800
C814        C  0.41041859  0.89222169  0.32102609     0.07300
C815        C  0.43299646  0.89143988  0.29630896    -0.14800
C816        C  0.42205586  0.90096712  0.26708100    -0.14800
C817        C  0.38842843  0.91096528  0.26245758     0.07300
C818        C  0.36611034  0.91140047  0.28734383    -0.14800
H819        H  0.35895116  0.90279149  0.33486213     0.11300
H820        H  0.45901495  0.88424365  0.29971986     0.11300
H821        H  0.43964119  0.90005767  0.24812277     0.11300
H822        H  0.34005046  0.91884602  0.28459529     0.11300
C823        C  0.34989160  0.93735578  0.04790162    -0.14800
C824        C  0.37470165  0.94995249  0.06744166     0.07300
C825        C  0.40847682  0.95087000  0.05753975    -0.14800
C826        C  0.41745929  0.93761785  0.02907112    -0.14800
C827        C  0.39281816  0.92272271  0.51075281     0.07300
C828        C  0.35895151  0.92353126  0.51990282    -0.14800
H829        H  0.32377805  0.93617599  0.05504518     0.11300
H830        H  0.42803823  0.96058430  0.07229577     0.11300
H831        H  0.44366351  0.93732050  0.02214433     0.11300
H832        H  0.33955568  0.91256123  0.50567034     0.11300
Fe833      Fe  0.41377330  0.91021762  0.91769875     1.65800
Fe834      Fe  0.39002591  0.83706191  0.94744524     1.73200
Fe835      Fe  0.45803697  0.83927228  0.89950325     1.54400
O836        O  0.44388912  0.86408027  0.85874161    -0.83100
O837        O  0.42948233  0.81785719  0.97224582    -0.81500
O838        O  0.40560800  0.90319777  0.87272871    -0.85700
O839        O  0.46265724  0.92219931  0.90720249    -0.80500
O840        O  0.42913524  0.79872328  0.88611637    -0.82300
O841        O  0.38626184  0.87678435  0.97806306    -0.85000
C842        C  0.49066904  0.90752761  0.90382403     0.95700
C843        C  0.42099169  0.88593527  0.85260263     1.03200
O844        O  0.42135933  0.86180718  0.92166135    -1.14000
O845        O  0.34887368  0.85421563  0.92328483    -0.76400
O846        O  0.36205096  0.90829070  0.92497616    -0.79900
O847        O  0.49400053  0.87609870  0.90838121    -0.80600
C848        C  0.34077920  0.88498666  0.92043613     0.94600
O849        O  0.42147505  0.91766089  0.96348313    -0.78600
O850        O  0.38848547  0.79429432  0.92086777    -0.83800
C851        C  0.45872946  0.80716246  0.96513495     0.97300
C852        C  0.40434940  0.78330407  0.89783461     1.03200
O853        O  0.47263538  0.81242455  0.93902089    -0.79400
C854        C  0.40148365  0.90455394  0.98282379     1.01500
Fe855      Fe  0.41212558  0.60589343  0.59857830     1.65800
Fe856      Fe  0.39180793  0.67943555  0.56771315     1.73200
Fe857      Fe  0.45461142  0.67651287  0.61990885     1.54400
O858        O  0.44127303  0.64972792  0.65944608    -0.83100
O859        O  0.43385536  0.69351594  0.54350343    -0.81500
O860        O  0.40438522  0.61062779  0.64397537    -0.85700
O861        O  0.46172004  0.59412383  0.60618268    -0.80500
O862        O  0.42169173  0.71380113  0.63419301    -0.82300
O863        O  0.38414846  0.63919896  0.53851341    -0.85000
C864        C  0.48962663  0.60898527  0.61016305     0.95700
C865        C  0.41915872  0.62705074  0.66479938     1.03200
O866        O  0.42026599  0.65397435  0.59540738    -1.14000
O867        O  0.34921530  0.66583106  0.59215629    -0.76400
O868        O  0.36035472  0.61077652  0.59290110    -0.79900
O869        O  0.49210805  0.64102801  0.61065881    -0.80600
C870        C  0.34003831  0.63537774  0.59629885     0.94600
O871        O  0.41914258  0.59856943  0.55267095    -0.78600
O872        O  0.39399845  0.72430316  0.59139124    -0.83800
C873        C  0.45958753  0.70883962  0.55388045     0.97300
C874        C  0.40350520  0.73278321  0.61783348     1.03200
O875        O  0.46935475  0.70632415  0.58178885    -0.79400
C876        C  0.39849646  0.61106454  0.53387739     1.01500
Fe877      Fe  0.38618780  0.57562587  0.85301815     1.65800
Fe878      Fe  0.31161921  0.60575379  0.82650983     1.73200
Fe879      Fe  0.31259912  0.53494752  0.86946354     1.54400
O880        O  0.35260636  0.50075303  0.86869801    -0.83100
O881        O  0.27796885  0.61434866  0.86122423    -0.81500
O882        O  0.39387794  0.52550598  0.84300615    -0.85700
O883        O  0.38378075  0.56461319  0.89895602    -0.80500
O884        O  0.29368621  0.51806481  0.82765898    -0.82300
O885        O  0.33835456  0.64658619  0.84282705    -0.85000
C886        C  0.36046628  0.55946244  0.91842774     0.95700
C887        C  0.38256795  0.50097363  0.85856979     1.03200
O888        O  0.33706384  0.57210738  0.84941875    -1.14000
O889        O  0.34284531  0.60138274  0.78969293    -0.76400
O890        O  0.39361941  0.58746905  0.80750365    -0.79900
O891        O  0.33037131  0.55156141  0.91117833    -0.80600
C892        C  0.37407209  0.59623909  0.78602728     0.94600
O893        O  0.38504206  0.62625608  0.86395866    -0.78600
O894        O  0.28164749  0.56865674  0.80717531    -0.83800
C895        C  0.25975325  0.59287417  0.87473615     0.97300
C896        C  0.27928065  0.53655654  0.80757136     1.03200
O897        O  0.26817795  0.56198568  0.87631694    -0.79400
C898        C  0.36567726  0.65062663  0.85725353     1.01500
Fe899      Fe  0.08439327  0.57992495  0.66254574     1.65800
Fe900      Fe  0.15746927  0.60864829  0.69262271     1.73200
Fe901      Fe  0.15770951  0.53874464  0.64857637     1.54400
O902        O  0.11711723  0.50525544  0.64894921    -0.83100
O903        O  0.19203776  0.61823682  0.65856864    -0.81500
O904        O  0.07625402  0.53056436  0.67482081    -0.85700
O905        O  0.08749947  0.56617110  0.61718714    -0.80500
O906        O  0.17560775  0.52123453  0.69057370    -0.82300
O907        O  0.13024594  0.64986500  0.67673314    -0.85000
C908        C  0.11154972  0.56256062  0.59826034     0.95700
C909        C  0.08713864  0.50592064  0.65915589     1.03200
O910        O  0.13304401  0.57572226  0.66821618    -1.14000
O911        O  0.12519947  0.60238827  0.72860163    -0.76400
O912        O  0.07486817  0.59470083  0.70728482    -0.79900
O913        O  0.14159997  0.55582103  0.60636144    -0.80600
C914        C  0.09341298  0.60034266  0.73029844     0.94600
O915        O  0.08831978  0.62935355  0.64865776    -0.78600
O916        O  0.18767772  0.57133504  0.71172358    -0.83800
C917        C  0.20986756  0.59707884  0.64410535     0.97300
C918        C  0.19010546  0.53924206  0.71086547     1.03200
O919        O  0.20181094  0.56609406  0.64252569    -0.79400
C920        C  0.10596494  0.65380172  0.65822243     1.01500
Fe921      Fe  0.06410656  0.91357811  0.59812069     1.65800
Fe922      Fe  0.08352049  0.84086111  0.56555869     1.73200
Fe923      Fe  0.02056636  0.84329904  0.61778445     1.54400
O924        O  0.03383755  0.86994903  0.65768250    -0.83100
O925        O  0.04163162  0.82720389  0.54135978    -0.81500
O926        O  0.07378808  0.90645862  0.64292658    -0.85700
O927        O  0.01531694  0.92548289  0.60971172    -0.80500
O928        O  0.05303418  0.80566207  0.63181076    -0.82300
O929        O  0.09007616  0.88197181  0.53700766    -0.85000
C930        C  0.98731068  0.91060249  0.61317877     0.95700
C931        C  0.05705930  0.89138990  0.66357138     1.03200
O932        O  0.05531979  0.86579383  0.59376611    -1.14000
O933        O  0.12636186  0.85409642  0.58966487    -0.76400
O934        O  0.11538513  0.90903257  0.58963937    -0.79900
O935        O  0.98384620  0.87921440  0.60810859    -0.80600
C936        C  0.13571052  0.88455626  0.59324081     0.94600
O937        O  0.05525672  0.92238897  0.55262277    -0.78600
O938        O  0.08141640  0.79556941  0.58901182    -0.83800
C939        C  0.01555013  0.81210343  0.55139119     0.97300
C940        C  0.07149948  0.78692145  0.61540977     1.03200
O941        O  0.00572574  0.81403774  0.57939116    -0.79400
C942        C  0.07554149  0.91022222  0.53310709     1.01500
Fe943      Fe  0.05350012  0.60806993  0.91808481     1.65800
Fe944      Fe  0.07933528  0.68152325  0.94625536     1.73200
Fe945      Fe  0.01340239  0.68073646  0.89670878     1.54400
O946        O  0.02555140  0.65457006  0.85649116    -0.83100
O947        O  0.03928903  0.69816100  0.97191078    -0.81500
O948        O  0.05699913  0.61081676  0.87194617    -0.85700
O949        O  0.00292350  0.59814287  0.91469330    -0.80500
O950        O  0.04576334  0.71843041  0.88183750    -0.82300
O951        O  0.08723318  0.64195382  0.97613051    -0.85000
C952        C  0.97590630  0.61396662  0.90899570     0.95700
C953        C  0.04454119  0.62918371  0.85108672     1.03200
O954        O  0.04808352  0.65684795  0.92026457    -1.14000
O955        O  0.12011596  0.66517363  0.92067074    -0.76400
O956        O  0.10577766  0.61080403  0.91952818    -0.79900
O957        O  0.97510603  0.64590680  0.90577668    -0.80600
C958        C  0.12747215  0.63423093  0.91626078     0.94600
O959        O  0.05072993  0.60182091  0.96471180    -0.78600
O960        O  0.07810089  0.72627102  0.92225592    -0.83800
C961        C  0.01237615  0.71273326  0.96306495     0.97300
C962        C  0.06612322  0.73616394  0.89709654     1.03200
O963        O  0.00041439  0.70975694  0.93587196    -0.79400
C964        C  0.07275153  0.61427337  0.98220029     1.01500
Fe965      Fe  0.38944668  0.93964477  0.66464141     1.65800
Fe966      Fe  0.31447101  0.91099566  0.69076380     1.73200
Fe967      Fe  0.31755763  0.98133262  0.64767525     1.54400
O968        O  0.35851189  0.01455238  0.64936077    -0.83100
O969        O  0.28331194  0.90150719  0.65448050    -0.81500
O970        O  0.39689572  0.98895380  0.67765166    -0.85700
O971        O  0.38926452  0.95373212  0.61912000    -0.80500
O972        O  0.29811809  0.99856792  0.68913268    -0.82300
O973        O  0.34306562  0.86978891  0.67725519    -0.85000
C974        C  0.36603342  0.95700164  0.59941206     0.95700
C975        C  0.38757838  0.01382120  0.66140489     1.03200
O976        O  0.34070498  0.94401985  0.66799163    -1.14000
O977        O  0.34356185  0.91729993  0.72846117    -0.76400
O978        O  0.39541560  0.92424152  0.70978606    -0.79900
O979        O  0.33570563  0.96412653  0.60645229    -0.80600
C980        C  0.37521943  0.91827401  0.73176800     0.94600
O981        O  0.38614388  0.89030185  0.65027916    -0.78600
O982        O  0.28256709  0.94811349  0.70773449    -0.83800
C983        C  0.26560545  0.92304825  0.64047059     0.97300
C984        C  0.28153203  0.98027997  0.70796427     1.03200
O985        O  0.27335728  0.95422035  0.64013093    -0.79400
C986        C  0.36820520  0.86588303  0.65963305     1.01500
Fe987      Fe  0.08588279  0.94460730  0.85303811     1.65800
Fe988      Fe  0.15962142  0.91336121  0.82594189     1.73200
Fe989      Fe  0.15966301  0.98476564  0.86734932     1.54400
O990        O  0.11996232  0.01912034  0.86602831    -0.83100
O991        O  0.19178766  0.90400882  0.86173551    -0.81500
O992        O  0.07899646  0.99421192  0.84037977    -0.85700
O993        O  0.08818975  0.95862152  0.89844486    -0.80500
O994        O  0.17810249  0.00045485  0.82505376    -0.82300
O995        O  0.13036384  0.87311682  0.84084068    -0.85000
C996        C  0.11203178  0.96281110  0.91740719     0.95700
C997        C  0.09020712  0.01900864  0.85559055     1.03200
O998        O  0.13477083  0.94757195  0.84856297    -1.14000
O999        O  0.12960054  0.91975051  0.78881100    -0.76400
O1000       O  0.07831623  0.92978861  0.80793870    -0.79900
O1001       O  0.14224905  0.96933654  0.90946377    -0.80600
C1002       C  0.09804876  0.92295724  0.78582150     0.94600
O1003       O  0.08754410  0.89489835  0.86722016    -0.78600
O1004       O  0.19182345  0.94924109  0.80716175    -0.83800
C1005       C  0.21049351  0.92555261  0.87461310     0.97300
C1006       C  0.19334409  0.98136994  0.80601007     1.03200
O1007       O  0.20338087  0.95684614  0.87435480    -0.79400
C1008       C  0.10472806  0.86987439  0.85800192     1.01500
Fe1009     Fe  0.58253992  0.43209026  0.66612590     1.65800
Fe1010     Fe  0.65583587  0.41013492  0.69592592     1.73200
Fe1011     Fe  0.65246588  0.47781390  0.64772843     1.54400
O1012       O  0.62750070  0.46389809  0.60689957    -0.83100
O1013       O  0.67289131  0.45025889  0.72134389    -0.81500
O1014       O  0.58948362  0.42466831  0.62092481    -0.85700
O1015       O  0.56983169  0.48136106  0.65650040    -0.80500
O1016       O  0.69279711  0.44898279  0.63358240    -0.82300
O1017       O  0.61591076  0.40404593  0.72612094    -0.85000
C1018       C  0.58411955  0.50974060  0.65334303     0.95700
C1019       C  0.60606918  0.44063742  0.60069920     1.03200
O1020       O  0.63056731  0.44082578  0.67007512    -1.14000
O1021       O  0.64065446  0.36885046  0.67071096    -0.76400
O1022       O  0.58616854  0.38001698  0.67245924    -0.79900
O1023       O  0.61544893  0.51344310  0.65751794    -0.80600
C1024       C  0.61031963  0.35976744  0.66738629     0.94600
O1025       O  0.57452900  0.43866439  0.71216543    -0.78600
O1026       O  0.69921397  0.41062971  0.67016766    -0.83800
C1027       C  0.68430272  0.47915592  0.71364954     0.97300
C1028       C  0.70941289  0.42566660  0.64636656     1.03200
O1029       O  0.67971387  0.49235876  0.68711904    -0.79400
C1030       C  0.58773341  0.41832582  0.73112246     1.01500
Fe1031     Fe  0.88550990  0.43924345  0.84978327     1.65800
Fe1032     Fe  0.81313656  0.41544811  0.81956735     1.73200
Fe1033     Fe  0.81392073  0.48193166  0.86895887     1.54400
O1034       O  0.83971173  0.46840178  0.90926758    -0.83100
O1035       O  0.79484635  0.45558898  0.79471653    -0.81500
O1036       O  0.87874532  0.43037566  0.89477323    -0.85700
O1037       O  0.89646702  0.48865502  0.86050567    -0.80500
O1038       O  0.77476718  0.45098315  0.88289352    -0.82300
O1039       O  0.85336236  0.41118031  0.78950362    -0.85000
C1040       C  0.88114816  0.51641164  0.86426407     0.95700
C1041       C  0.86178107  0.44566305  0.91511560     1.03200
O1042       O  0.83722135  0.44639567  0.84594231    -1.14000
O1043       O  0.82964644  0.37402218  0.84427349    -0.76400
O1044       O  0.88361471  0.38732325  0.84257665    -0.79900
O1045       O  0.84972836  0.51919934  0.85968803    -0.80600
C1046       C  0.86033622  0.36604279  0.84755205     0.94600
O1047       O  0.89337046  0.44713182  0.80381660    -0.78600
O1048       O  0.76956810  0.41420434  0.84500993    -0.83800
C1049       C  0.78142536  0.48326243  0.80332828     0.97300
C1050       C  0.75875572  0.42781267  0.86926614     1.03200
O1051       O  0.78557002  0.49596377  0.83007337    -0.79400
C1052       C  0.88102315  0.42648683  0.78470789     1.01500
Fe1053     Fe  0.91730093  0.41381666  0.60211853     1.65800
Fe1054     Fe  0.88962644  0.33756052  0.57673852     1.73200
Fe1055     Fe  0.95972336  0.34135560  0.61966604     1.54400
O1056       O  0.99261929  0.38201754  0.61805155    -0.83100
O1057       O  0.88189804  0.30453050  0.61203566    -0.81500
O1058       O  0.96713899  0.42282404  0.59231369    -0.85700
O1059       O  0.92770814  0.41272033  0.64833295    -0.80500
O1060       O  0.97734370  0.32175630  0.57822456    -0.82300
O1061       O  0.84820481  0.36343090  0.59278188    -0.85000
C1062       C  0.93326814  0.38972828  0.66807022     0.95700
C1063       C  0.99177873  0.41193056  0.60777142     1.03200
O1064       O  0.92226855  0.36453576  0.59918683    -1.14000
O1065       O  0.89288118  0.36830199  0.53944610    -0.76400
O1066       O  0.90566122  0.41989932  0.55630970    -0.79900
O1067       O  0.94235909  0.35973967  0.66110431    -0.80600
C1068       C  0.89685873  0.39973763  0.53521698     0.94600
O1069       O  0.86677894  0.41150951  0.61288293    -0.78600
O1070       O  0.92745967  0.30793194  0.55787053    -0.83800
C1071       C  0.90358150  0.28737379  0.62620500     0.97300
C1072       C  0.95948064  0.30619922  0.55847295     1.03200
O1073       O  0.93411403  0.29647290  0.62750168    -0.79400
C1074       C  0.84324271  0.39104346  0.60668703     1.01500
Fe1075     Fe  0.92391984  0.10975372  0.91528996     1.65800
Fe1076     Fe  0.89235356  0.18330930  0.94341665     1.73200
Fe1077     Fe  0.96178395  0.18475269  0.89887428     1.54400
O1078       O  0.99679697  0.14535701  0.89807557    -0.83100
O1079       O  0.88198598  0.21757580  0.90927002    -0.81500
O1080       O  0.97397410  0.10406988  0.92512783    -0.85700
O1081       O  0.93438818  0.11286095  0.86919811    -0.80500
O1082       O  0.97916620  0.20354301  0.94059422    -0.82300
O1083       O  0.85223715  0.15511576  0.92763097    -0.85000
C1084       C  0.93720082  0.13684561  0.84997072     0.95700
C1085       C  0.99731464  0.11533527  0.90822935     1.03200
O1086       O  0.92594368  0.15905583  0.91942410    -1.14000
O1087       O  0.89862651  0.15156829  0.97981578    -0.76400
O1088       O  0.91269926  0.10121208  0.96072331    -0.79900
O1089       O  0.94417936  0.16720559  0.85742333    -0.80600
C1090       C  0.90427884  0.12021888  0.98276802     0.94600
O1091       O  0.87351554  0.10958545  0.90479209    -0.78600
O1092       O  0.92895984  0.21414897  0.96233341    -0.83800
C1093       C  0.90262520  0.23611893  0.89496847     0.97300
C1094       C  0.96089381  0.21716003  0.96135813     1.03200
O1095       O  0.93359299  0.22852846  0.89308675    -0.79400
C1096       C  0.84877031  0.12791374  0.91263135     1.01500
Fe1097     Fe  0.59059691  0.06996049  0.85159235     1.65800
Fe1098     Fe  0.66537895  0.10097278  0.82729178     1.73200
Fe1099     Fe  0.66342917  0.02912041  0.86810410     1.54400
O1100       O  0.64633230  0.04640479  0.90979076    -0.83100
O1101       O  0.69572436  0.06390574  0.80778231    -0.81500
O1102       O  0.59241167  0.05744703  0.89775782    -0.85700
O1103       O  0.58469462  0.02025258  0.83931711    -0.80500
O1104       O  0.70864955  0.05477615  0.87392677    -0.82300
O1105       O  0.63560436  0.09799362  0.78959569    -0.85000
C1106       C  0.59407563  0.99578831  0.85587461     0.95700
C1107       C  0.61609813  0.05393354  0.91717087     1.03200
O1108       O  0.63948421  0.06684858  0.84871638    -1.14000
O1109       O  0.63768316  0.14135540  0.84366605    -0.76400
O1110       O  0.59072661  0.12028205  0.86396478    -0.79900
O1111       O  0.62292271  0.99568273  0.86809843    -0.80600
C1112       C  0.60980492  0.14503822  0.85755190     0.94600
O1113       O  0.58435715  0.08350817  0.80604148    -0.78600
O1114       O  0.69730516  0.10805949  0.86340642    -0.83800
C1115       C  0.69649212  0.03168058  0.80663898     0.97300
C1116       C  0.71647454  0.08579296  0.87444862     1.03200
O1117       O  0.68103526  0.01273948  0.82579177    -0.79400
C1118       C  0.60447305  0.09322373  0.78511001     1.01500
Fe1119     Fe  0.89289948  0.08187092  0.67049599     1.65800
Fe1120     Fe  0.81793404  0.10565400  0.69673483     1.73200
Fe1121     Fe  0.82291265  0.03888528  0.64764617     1.54400
O1122       O  0.85062212  0.05195127  0.60845777    -0.83100
O1123       O  0.79916993  0.06536977  0.72086865    -0.81500
O1124       O  0.89082583  0.08738984  0.62464357    -0.85700
O1125       O  0.90450066  0.03179080  0.66502353    -0.80500
O1126       O  0.78518140  0.06977137  0.63162047    -0.82300
O1127       O  0.85563516  0.11187890  0.72876746    -0.85000
C1128       C  0.88972954  0.00399013  0.66016769     0.95700
C1129       C  0.87438514  0.07308685  0.60353018     1.03200
O1130       O  0.84441614  0.07479739  0.67164449    -1.14000
O1131       O  0.83526127  0.14699094  0.67298078    -0.76400
O1132       O  0.88959474  0.13414734  0.67419220    -0.79900
O1133       O  0.85795744  0.00179559  0.65824443    -0.80600
C1134       C  0.86592625  0.15525025  0.67003951     0.94600
O1135       O  0.89737179  0.07698051  0.71688864    -0.78600
O1136       O  0.77613457  0.10613052  0.66916443    -0.83800
C1137       C  0.78757805  0.03699818  0.71213972     0.97300
C1138       C  0.76795654  0.09292338  0.64397800     1.03200
O1139       O  0.79285982  0.02453657  0.68546868    -0.79400
C1140       C  0.88352459  0.09781796  0.73487301     1.01500
Fe1141     Fe  0.55083987  0.40725439  0.91313414     1.65800
Fe1142     Fe  0.58171114  0.33227159  0.93842477     1.73200
Fe1143     Fe  0.51042485  0.33325551  0.89712048     1.54400
O1144       O  0.47654927  0.37362919  0.89729588    -0.83100
O1145       O  0.58915389  0.29869313  0.90337626    -0.81500
O1146       O  0.50095248  0.41405425  0.92393723    -0.85700
O1147       O  0.53964115  0.40479499  0.86698336    -0.80500
O1148       O  0.49394740  0.31448842  0.93930108    -0.82300
O1149       O  0.62189757  0.35910954  0.92081005    -0.85000
C1150       C  0.53531315  0.38105736  0.84772066     0.95700
C1151       C  0.47679782  0.40346613  0.90779497     1.03200
O1152       O  0.54766452  0.35789283  0.91657022    -1.14000
O1153       O  0.57887615  0.36357366  0.97545522    -0.76400
O1154       O  0.56303605  0.41444495  0.95872576    -0.79900
O1155       O  0.52745933  0.35083546  0.85525677    -0.80600
C1156       C  0.57333162  0.39478284  0.97970823     0.94600
O1157       O  0.60136655  0.40710690  0.90183675    -0.78600
O1158       O  0.54487118  0.30219672  0.95863789    -0.83800
C1159       C  0.56721275  0.27956386  0.89190108     0.97300
C1160       C  0.51284898  0.29953058  0.95876165     1.03200
O1161       O  0.53645807  0.28801014  0.89103481    -0.79400
C1162       C  0.62566801  0.38725285  0.90735801     1.01500
Fe1163     Fe  0.56774484  0.10258281  0.59846006     1.65800
Fe1164     Fe  0.58802789  0.17661071  0.56820506     1.73200
Fe1165     Fe  0.52153664  0.17190985  0.61734755     1.54400
O1166       O  0.48642727  0.13432148  0.60777967    -0.83100
O1167       O  0.58790556  0.21986893  0.59453812    -0.81500
O1168       O  0.51917588  0.08915286  0.60954938    -0.85700
O1169       O  0.57655906  0.10992469  0.64343553    -0.80500
O1170       O  0.50624400  0.19996716  0.57839587    -0.82300
O1171       O  0.62962958  0.16143176  0.59262920    -0.85000
C1172       C  0.56000320  0.12578513  0.66373349     0.95700
C1173       C  0.49063565  0.10298086  0.61268816     1.03200
O1174       O  0.55820849  0.15062742  0.59440463    -1.14000
O1175       O  0.59353274  0.13661129  0.53775533    -0.76400
O1176       O  0.55990943  0.09458054  0.55269192    -0.79900
O1177       O  0.53596154  0.14635152  0.65766427    -0.80600
C1178       C  0.57956493  0.10808354  0.53324440     0.94600
O1179       O  0.61916780  0.10671580  0.59038557    -0.78600
O1180       O  0.54764752  0.19386146  0.54350340    -0.83800
C1181       C  0.57381177  0.22907174  0.61917193     0.97300
C1182       C  0.51895884  0.20507987  0.55171320     1.03200
O1183       O  0.55061533  0.21197664  0.63170711    -0.79400
C1184       C  0.63907393  0.13105951  0.59540816     1.01500
C1185       C  0.49779998  0.24169194  0.97522874    -0.14800
C1186       C  0.49879397  0.27633243  0.98202103     0.07300
C1187       C  0.49798860  0.28636238  0.51282608    -0.14800
C1188       C  0.49919482  0.26218827  0.53636244    -0.14800
C1189       C  0.50217826  0.22765916  0.52941945     0.07300
C1190       C  0.49976187  0.21757740  0.49868770    -0.14800
H1191       H  0.49953154  0.23331887  0.95169048     0.11300
H1192       H  0.49994474  0.31287573  0.51863493     0.11300
H1193       H  0.50205162  0.27072390  0.55973865     0.11300
H1194       H  0.50283820  0.19122422  0.99265569     0.11300
C1195       C  0.72026509  0.08358223  0.60784623    -0.14800
C1196       C  0.73666299  0.10439907  0.62906402     0.07300
C1197       C  0.72183253  0.13538048  0.63724848    -0.14800
C1198       C  0.69076420  0.14490895  0.62508213    -0.14800
C1199       C  0.67371927  0.12331938  0.60500414     0.07300
C1200       C  0.68891440  0.09280117  0.59617740    -0.14800
H1201       H  0.73103718  0.05955402  0.60116907     0.11300
H1202       H  0.73398310  0.15199676  0.65346807     0.11300
H1203       H  0.67940341  0.16844255  0.63239092     0.11300
H1204       H  0.67624353  0.07577960  0.58063597     0.11300
C1205       C  0.55461028  0.21881764  0.88133183    -0.14800
C1206       C  0.57757511  0.24578509  0.88091560     0.07300
C1207       C  0.61115573  0.23946108  0.87251927    -0.14800
C1208       C  0.62160169  0.20680456  0.86483785    -0.14800
C1209       C  0.59882782  0.17963733  0.86592756     0.07300
C1210       C  0.56517181  0.18605902  0.87414959    -0.14800
H1211       H  0.52867357  0.22286902  0.88811578     0.11300
H1212       H  0.62941781  0.25976268  0.87209758     0.11300
H1213       H  0.64765483  0.20276586  0.85845279     0.11300
H1214       H  0.54691848  0.16576917  0.87494749     0.11300
C1215       C  0.70657704  0.01979267  0.75180913    -0.14800
C1216       C  0.71758149  0.01725816  0.78221544     0.07300
C1217       C  0.75197697  0.01253371  0.78793840    -0.14800
C1218       C  0.77535730  0.01426779  0.76393894    -0.14800
C1219       C  0.76458626  0.02016200  0.73383996     0.07300
C1220       C  0.72992747  0.02082529  0.72771903    -0.14800
H1221       H  0.68028042  0.02462203  0.74697708     0.11300
H1222       H  0.76107903  0.01162925  0.81125504     0.11300
H1223       H  0.80196000  0.01456389  0.76926963     0.11300
H1224       H  0.72107284  0.02643394  0.70485554     0.11300
C1225       C  0.57484390  0.05767963  0.96026567    -0.14800
C1226       C  0.60800545  0.06128741  0.94927176     0.07300
C1227       C  0.63213878  0.07705842  0.96760829    -0.14800
C1228       C  0.62268180  0.09146170  0.99534156    -0.14800
C1229       C  0.58914873  0.08966095  0.50549716     0.07300
C1230       C  0.56555512  0.07142581  0.48850113    -0.14800
H1231       H  0.55584882  0.04544903  0.94645672     0.11300
H1232       H  0.65776826  0.08030467  0.95958598     0.11300
H1233       H  0.64143622  0.10484988  0.50855176     0.11300
H1234       H  0.53968950  0.06946393  0.49620408     0.11300
C1235       C  0.61477922  0.10232168  0.72988204    -0.14800
C1236       C  0.59174446  0.10046895  0.75420414     0.07300
C1237       C  0.55768352  0.10824814  0.74890741    -0.14800
C1238       C  0.54700278  0.11788186  0.71961738    -0.14800
C1239       C  0.57026339  0.11934303  0.69542874     0.07300
C1240       C  0.60417702  0.11161388  0.70092476    -0.14800
H1241       H  0.64118818  0.09660081  0.73319200     0.11300
H1242       H  0.53952988  0.10740631  0.76742566     0.11300
H1243       H  0.52066583  0.12339042  0.71571709     0.11300
H1244       H  0.62265832  0.11262792  0.68264441     0.11300
C1245       C  0.88520813  0.07369922  0.01741607    -0.14800
C1246       C  0.89990681  0.10568849  0.01327552     0.07300
C1247       C  0.90722536  0.12570330  0.53868187    -0.14800
C1248       C  0.89924565  0.11448204  0.56780357    -0.14800
C1249       C  0.88341391  0.08308475  0.57220640     0.07300
C1250       C  0.87664931  0.06253974  0.54684105    -0.14800
H1251       H  0.87908215  0.05808803  0.99789622     0.11300
H1252       H  0.91854012  0.15043780  0.53595206     0.11300
H1253       H  0.90467767  0.13099877  0.58689156     0.11300
H1254       H  0.86466754  0.03817716  0.54975394     0.11300
C1255       C  0.93405927  0.09531837  0.80747573    -0.14800
C1256       C  0.92965739  0.12859028  0.81808627     0.07300
C1257       C  0.91267543  0.15211929  0.79988439    -0.14800
C1258       C  0.89808108  0.14189767  0.77254301    -0.14800
C1259       C  0.90087928  0.10821778  0.76276216     0.07300
C1260       C  0.92006268  0.08528130  0.77973024    -0.14800
H1261       H  0.94716916  0.07676621  0.82124684     0.11300
H1262       H  0.90876663  0.17777593  0.80772113     0.11300
H1263       H  0.88400044  0.16018390  0.75928092     0.11300
H1264       H  0.92284408  0.05934357  0.77228171     0.11300
C1265       C  0.80824678  0.08302270  0.89664267    -0.14800
C1266       C  0.81452033  0.11694181  0.90414339     0.07300
C1267       C  0.78778143  0.14015985  0.90352047    -0.14800
C1268       C  0.75565297  0.12988386  0.89459052    -0.14800
C1269       C  0.74951752  0.09607206  0.88664652     0.07300
C1270       C  0.77601160  0.07263962  0.88821299    -0.14800
H1271       H  0.82829492  0.06448600  0.89722294     0.11300
H1272       H  0.79186095  0.16644016  0.90925694     0.11300
H1273       H  0.73568049  0.14847886  0.89357944     0.11300
H1274       H  0.77208299  0.04647010  0.88198678     0.11300
C1275       C  0.85943037  0.24461028  0.63969165    -0.14800
C1276       C  0.89326158  0.25506451  0.64040016     0.07300
C1277       C  0.91750831  0.23326022  0.65284932    -0.14800
C1278       C  0.90839427  0.20118330  0.66317328    -0.14800
C1279       C  0.87479886  0.19025110  0.66145420     0.07300
C1280       C  0.85027502  0.21254413  0.65019788    -0.14800
H1281       H  0.84011153  0.26087057  0.63030592     0.11300
H1282       H  0.94375171  0.24054760  0.65378002     0.11300
H1283       H  0.92784549  0.18469557  0.67199416     0.11300
H1284       H  0.82418400  0.20485301  0.64862925     0.11300
C1285       C  0.97938216  0.29565345  0.50530940    -0.14800
C1286       C  0.97492847  0.28384059  0.53536761     0.07300
C1287       C  0.97408029  0.24884635  0.54056990    -0.14800
C1288       C  0.97432790  0.22620310  0.51597036    -0.14800
C1289       C  0.97570061  0.23813981  0.98572942     0.07300
C1290       C  0.97993028  0.27293432  0.98066158    -0.14800
H1291       H  0.97886438  0.32252501  0.50063657     0.11300
H1292       H  0.96945499  0.23918852  0.56340539     0.11300
H1293       H  0.96988101  0.19964359  0.52042154     0.11300
H1294       H  0.97979776  0.28283709  0.95754976     0.11300
C1295       C  0.91497159  0.44162926  0.73840700    -0.14800
C1296       C  0.89969729  0.41724991  0.75701445     0.07300
C1297       C  0.90015931  0.38317005  0.74808836    -0.14800
C1298       C  0.91382902  0.37374474  0.72002993    -0.14800
C1299       C  0.92661522  0.39839479  0.70018847     0.07300
C1300       C  0.92804524  0.43228988  0.70991601    -0.14800
H1301       H  0.91498181  0.46797175  0.74505801     0.11300
H1302       H  0.88889285  0.36391315  0.76248206     0.11300
H1303       H  0.91227815  0.34755770  0.71302133     0.11300
H1304       H  0.93797017  0.45172828  0.69493898     0.11300
C1305       C  0.87147191  0.45834410  0.97060456    -0.14800
C1306       C  0.86864458  0.43513621  0.94657050     0.07300
C1307       C  0.87605464  0.40097278  0.95171020    -0.14800
C1308       C  0.88627226  0.38998600  0.98025957    -0.14800
C1309       C  0.88931627  0.41289334  0.50451274     0.07300
C1310       C  0.88195256  0.44726115  0.49951453    -0.14800
H1311       H  0.86639398  0.48490167  0.96683501     0.11300
H1312       H  0.87412971  0.38262763  0.93341399     0.11300
H1313       H  0.89162651  0.36336279  0.98332345     0.11300
H1314       H  0.88374311  0.46534790  0.51798838     0.11300
C1315       C  0.90346994  0.32070299  0.85430556    -0.14800
C1316       C  0.86990801  0.33146967  0.85736422     0.07300
C1317       C  0.84656163  0.30975996  0.87150355    -0.14800
C1318       C  0.85689358  0.27841226  0.88318799    -0.14800
C1319       C  0.89073608  0.26809024  0.88078739     0.07300
C1320       C  0.91371542  0.28944165  0.86576454    -0.14800
H1321       H  0.92208035  0.33671521  0.84339534     0.11300
H1322       H  0.82056927  0.31742071  0.87435077     0.11300
H1323       H  0.83852125  0.26258187  0.89462751     0.11300
H1324       H  0.93991770  0.28234389  0.86337715     0.11300
C1325       C  0.71385506  0.38399801  0.87496812    -0.14800
C1326       C  0.72564438  0.41677144  0.88112172     0.07300
C1327       C  0.70436021  0.43963671  0.89633325    -0.14800
C1328       C  0.67156207  0.43018266  0.90441685    -0.14800
C1329       C  0.65989841  0.39744063  0.89820688     0.07300
C1330       C  0.68145070  0.37426407  0.88386530    -0.14800
H1331       H  0.72970264  0.36591785  0.86317036     0.11300
H1332       H  0.71268627  0.46514311  0.90104444     0.11300
H1333       H  0.65537966  0.44831220  0.91577370     0.11300
H1334       H  0.67292286  0.34886622  0.87894329     0.11300
C1335       C  0.75303937  0.38260111  0.63344091    -0.14800
C1336       C  0.74262699  0.41647188  0.63399927     0.07300
C1337       C  0.76522875  0.44187090  0.62503997    -0.14800
C1338       C  0.79811164  0.43360928  0.61644209    -0.14800
C1339       C  0.80857856  0.39973656  0.61584407     0.07300
C1340       C  0.78561293  0.37424362  0.62393277    -0.14800
H1341       H  0.73598636  0.36267009  0.64043975     0.11300
H1342       H  0.75779063  0.46818936  0.62572984     0.11300
H1343       H  0.81531889  0.45366339  0.61009542     0.11300
H1344       H  0.79314613  0.34794372  0.62366871     0.11300
C1345       C  0.72256077  0.49690103  0.79005562    -0.14800
C1346       C  0.75676386  0.49814541  0.78191660     0.07300
C1347       C  0.76534216  0.50232085  0.75091256    -0.14800
C1348       C  0.74039063  0.50165329  0.72826199    -0.14800
C1349       C  0.70663678  0.49559937  0.73623694     0.07300
C1350       C  0.69774883  0.49509844  0.76739859    -0.14800
H1351       H  0.71529771  0.49280990  0.81368452     0.11300
H1352       H  0.79155356  0.50261835  0.74401235     0.11300
H1353       H  0.74803715  0.50142538  0.70445666     0.11300
H1354       H  0.67200678  0.48988523  0.77415968     0.11300
C1355       C  0.57099993  0.31060926  0.66429227    -0.14800
C1356       C  0.60241318  0.32503332  0.65728404     0.07300
C1357       C  0.62511677  0.30687525  0.63889942    -0.14800
C1358       C  0.61602924  0.27546440  0.62679242    -0.14800
C1359       C  0.58434863  0.26130380  0.63338520     0.07300
C1360       C  0.56220287  0.27893602  0.65273764    -0.14800
H1361       H  0.55304264  0.32401894  0.67848482     0.11300
H1362       H  0.64940412  0.31750155  0.63299084     0.11300
H1363       H  0.63368018  0.26237306  0.61205544     0.11300
H1364       H  0.53760200  0.26873992  0.65816141     0.11300
C1365       C  0.59955742  0.45300141  0.54436549    -0.14800
C1366       C  0.59942953  0.43021932  0.56899971     0.07300
C1367       C  0.58982319  0.39654288  0.56399682    -0.14800
C1368       C  0.58038825  0.38569296  0.53519211    -0.14800
C1369       C  0.58029072  0.40817298  0.01043960     0.07300
C1370       C  0.58979520  0.44203924  0.51516652    -0.14800
H1371       H  0.60648718  0.47916328  0.54781445     0.11300
H1372       H  0.58953944  0.37835928  0.58255883     0.11300
H1373       H  0.57328118  0.35947554  0.53229028     0.11300
H1374       H  0.59032576  0.45973303  0.99625687     0.11300
C1375       C  0.57186503  0.37483339  0.76904206    -0.14800
C1376       C  0.56956074  0.40847567  0.75896728     0.07300
C1377       C  0.55136450  0.43197013  0.77628930    -0.14800
C1378       C  0.53806273  0.42246349  0.80467132    -0.14800
C1379       C  0.54212604  0.38918905  0.81552172     0.07300
C1380       C  0.55794187  0.36516744  0.79694837    -0.14800
H1381       H  0.58531821  0.35615996  0.75564251     0.11300
H1382       H  0.54910408  0.45793484  0.76872149     0.11300
H1383       H  0.52583958  0.44139474  0.81871348     0.11300
H1384       H  0.56159667  0.33949886  0.80490315     0.11300
C1385       C  0.03262722  0.03768331  0.87020605    -0.14800
C1386       C  0.06663043  0.04598432  0.86557875     0.07300
C1387       C  0.07824133  0.07760244  0.87592340    -0.14800
C1388       C  0.05611433  0.10043384  0.89029683    -0.14800
C1389       C  0.02247182  0.09130337  0.89588635     0.07300
C1390       C  0.01103085  0.05979417  0.88551198    -0.14800
H1391       H  0.02295706  0.01333159  0.86319008     0.11300
H1392       H  0.10445489  0.08447582  0.87317069     0.11300
H1393       H  0.06533556  0.12490290  0.89744705     0.11300
H1394       H  0.98495833  0.05250529  0.88863971     0.11300
C1395       C  0.40382701  0.06904515  0.63572352    -0.14800
C1396       C  0.41280480  0.04001773  0.65265780     0.07300
C1397       C  0.44713569  0.03290200  0.65653768    -0.14800
C1398       C  0.47171101  0.05312874  0.64292662    -0.14800
C1399       C  0.46298914  0.08166091  0.62538584     0.07300
C1400       C  0.42872266  0.08998517  0.62260890    -0.14800
H1401       H  0.37758415  0.07507923  0.63197151     0.11300
H1402       H  0.45518037  0.01067277  0.66900385     0.11300
H1403       H  0.49784366  0.04634466  0.64634598     0.11300
H1404       H  0.42119010  0.11210477  0.60974159     0.11300
C1405       C  0.27128608  0.99972629  0.76107699    -0.14800
C1406       C  0.25924965  0.99539276  0.73118758     0.07300
C1407       C  0.22436090  0.99426103  0.72634746    -0.14800
C1408       C  0.20201896  0.99428847  0.75119145    -0.14800
C1409       C  0.21422244  0.99556771  0.78124316     0.07300
C1410       C  0.24889508  0.99984806  0.78596574    -0.14800
H1411       H  0.29811229  0.99937886  0.76542310     0.11300
H1412       H  0.21459869  0.98970543  0.70361966     0.11300
H1413       H  0.17551218  0.98984379  0.74707830     0.11300
H1414       H  0.25893028  0.99967462  0.80896790     0.11300
C1415       C  0.89904063  0.57822326  0.86866689    -0.14800
C1416       C  0.90086971  0.54433009  0.87816685     0.07300
C1417       C  0.92303774  0.53585771  0.90195902    -0.14800
C1418       C  0.94480315  0.55975615  0.91431720    -0.14800
C1419       C  0.94550808  0.59296471  0.90304577     0.07300
C1420       C  0.92145816  0.60237467  0.88087895    -0.14800
H1421       H  0.88181443  0.58554536  0.85070909     0.11300
H1422       H  0.92426050  0.51016631  0.91049368     0.11300
H1423       H  0.96269185  0.55159977  0.93145558     0.11300
H1424       H  0.92158568  0.62767734  0.87144546     0.11300
C1425       C  0.08249810  0.82996306  0.89737443    -0.14800
C1426       C  0.09448338  0.83561300  0.86759448     0.07300
C1427       C  0.09647640  0.80831410  0.84710165    -0.14800
C1428       C  0.08642073  0.77588532  0.85625528    -0.14800
C1429       C  0.07538929  0.77019028  0.88632381     0.07300
C1430       C  0.07357375  0.79743934  0.90679678    -0.14800
H1431       H  0.08072786  0.85059851  0.91354746     0.11300
H1432       H  0.10539469  0.81219424  0.82392539     0.11300
H1433       H  0.08798475  0.75517087  0.84016062     0.11300
H1434       H  0.06488665  0.79356017  0.93005880     0.11300
C1435       C  0.96901453  0.95419665  0.64986757    -0.14800
C1436       C  0.95991476  0.93066238  0.62733868     0.07300
C1437       C  0.92575430  0.92715307  0.61980280    -0.14800
C1438       C  0.90166343  0.94916216  0.63269668    -0.14800
C1439       C  0.91150047  0.97439529  0.65361410     0.07300
C1440       C  0.94520885  0.97553225  0.66293505    -0.14800
H1441       H  0.99499236  0.95666008  0.65701005     0.11300
H1442       H  0.91803041  0.90876525  0.60292833     0.11300
H1443       H  0.87589476  0.94792187  0.62480509     0.11300
H1444       H  0.95364978  0.99440164  0.67910307     0.11300
C1445       C  0.22364484  0.87797484  0.62644569    -0.14800
C1446       C  0.23420874  0.91193544  0.62525971     0.07300
C1447       C  0.21335560  0.93578836  0.61098878    -0.14800
C1448       C  0.18206811  0.92635586  0.59952623    -0.14800
C1449       C  0.17075466  0.89278886  0.60192107     0.07300
C1450       C  0.19220481  0.86846771  0.61481141    -0.14800
H1451       H  0.23920307  0.85892003  0.63719627     0.11300
H1452       H  0.22072134  0.96207054  0.60946622     0.11300
H1453       H  0.16631445  0.94570187  0.58944119     0.11300
H1454       H  0.18416697  0.84244104  0.61699872     0.11300
C1455       C  0.99730004  0.79671211  0.49863039    -0.14800
C1456       C  0.99931186  0.78833556  0.52986765     0.07300
C1457       C  0.99601860  0.75430518  0.53846650    -0.14800
C1458       C  0.99569584  0.72889833  0.51614635    -0.14800
C1459       C  0.99754721  0.73717016  0.98488330     0.07300
C1460       C  0.99593772  0.77133456  0.97632848    -0.14800
H1461       H  0.00026389  0.82271869  0.99135620     0.11300
H1462       H  0.99816287  0.74706688  0.56228220     0.11300
H1463       H  0.99748079  0.70276460  0.52334684     0.11300
H1464       H  0.99809405  0.77844766  0.95246481     0.11300
C1465       C  0.09475904  0.91945405  0.70066022    -0.14800
C1466       C  0.06564826  0.90012702  0.69537247     0.07300
C1467       C  0.04545989  0.89045436  0.72035089    -0.14800
C1468       C  0.05480387  0.89946987  0.75014294    -0.14800
C1469       C  0.08454797  0.91783199  0.75507107     0.07300
C1470       C  0.10409361  0.92807920  0.73009099    -0.14800
H1471       H  0.11093435  0.92752223  0.68204147     0.11300
H1472       H  0.02277831  0.87582701  0.71688685     0.11300
H1473       H  0.03965470  0.89098616  0.76930934     0.11300
H1474       H  0.12713452  0.94223577  0.73340356     0.11300
C1475       C  0.11890974  0.92804342  0.49623458    -0.14800
C1476       C  0.08527476  0.92966414  0.50609844     0.07300
C1477       C  0.06163115  0.94765538  0.48893354    -0.14800
C1478       C  0.07097589  0.96105625  0.96058720    -0.14800
C1479       C  0.10415534  0.95713039  0.94971143     0.07300
C1480       C  0.12837438  0.94196781  0.96836073    -0.14800
H1481       H  0.13765407  0.91475932  0.50960129     0.11300
H1482       H  0.03567487  0.94936501  0.49643404     0.11300
H1483       H  0.05195016  0.97287704  0.94647196     0.11300
H1484       H  0.15400107  0.93850735  0.96039913     0.11300
C1485       C  0.07367350  0.44799891  0.63840008    -0.14800
C1486       C  0.06296907  0.48007000  0.64834351     0.07300
C1487       C  0.02948547  0.48977620  0.64295273    -0.14800
C1488       C  0.00734326  0.46826843  0.62775174    -0.14800
C1489       C  0.01772865  0.43603920  0.61824373     0.07300
C1490       C  0.05100337  0.42584869  0.62412134    -0.14800
H1491       H  0.09950876  0.44010520  0.64168545     0.11300
H1492       H  0.02062091  0.51459903  0.64957795     0.11300
H1493       H  0.98158683  0.47644364  0.62440954     0.11300
H1494       H  0.05941107  0.40082521  0.61765739     0.11300
C1495       C  0.09593172  0.59437702  0.78624266    -0.14800
C1496       C  0.07804399  0.60510655  0.76053639     0.07300
C1497       C  0.04760570  0.62280484  0.76438571    -0.14800
C1498       C  0.03604263  0.63083545  0.79386649    -0.14800
C1499       C  0.05454450  0.62054778  0.81956994     0.07300
C1500       C  0.08427299  0.60180865  0.81533515    -0.14800
H1501       H  0.11940833  0.58066568  0.78382235     0.11300
H1502       H  0.03361016  0.63154256  0.74468968     0.11300
H1503       H  0.01300919  0.64517417  0.79656387     0.11300
H1504       H  0.09930390  0.59362781  0.83460125     0.11300
C1505       C  0.11707962  0.59912348  0.51952066    -0.14800
C1506       C  0.08351653  0.59612460  0.00976334     0.07300
C1507       C  0.06071607  0.57715458  0.52716191    -0.14800
C1508       C  0.07066296  0.56384780  0.55530172    -0.14800
C1509       C  0.10369204  0.56877365  0.56597670     0.07300
C1510       C  0.12719445  0.58525500  0.54730487    -0.14800
H1511       H  0.13527502  0.61314299  0.00604702     0.11300
H1512       H  0.03485087  0.57430190  0.51987054     0.11300
H1513       H  0.05212986  0.55108899  0.56940607     0.11300
H1514       H  0.15267070  0.58955301  0.55513958     0.11300
C1515       C  0.08140319  0.69255882  0.61914656    -0.14800
C1516       C  0.09775388  0.68813905  0.64731200     0.07300
C1517       C  0.10568434  0.71670531  0.66496110    -0.14800
C1518       C  0.09675117  0.74905368  0.65486896    -0.14800
C1519       C  0.08075022  0.75325726  0.62661056     0.07300
C1520       C  0.07338822  0.72488553  0.60871064    -0.14800
H1521       H  0.07512534  0.67101902  0.60502277     0.11300
H1522       H  0.11818749  0.71396267  0.68678728     0.11300
H1523       H  0.10268743  0.77078742  0.66886638     0.11300
H1524       H  0.06091688  0.72775516  0.58686103     0.11300
C1525       C  0.43911001  0.48406721  0.87705057    -0.14800
C1526       C  0.40632697  0.47439032  0.86895486     0.07300
C1527       C  0.39588136  0.44114888  0.87540265    -0.14800
C1528       C  0.41829292  0.41785551  0.88875952    -0.14800
C1529       C  0.45091192  0.42794283  0.89731042     0.07300
C1530       C  0.46086376  0.46137332  0.89138901    -0.14800
H1531       H  0.44765759  0.50971097  0.87319236     0.11300
H1532       H  0.37052501  0.43320199  0.86997987     0.11300
H1533       H  0.41014302  0.39208166  0.89252071     0.11300
H1534       H  0.48604909  0.46977740  0.89695774     0.11300
C1535       C  0.17106044  0.58988707  0.90640120    -0.14800
C1536       C  0.16217123  0.62430431  0.90735422     0.07300
C1537       C  0.18642019  0.64850197  0.89910901    -0.14800
C1538       C  0.21848965  0.63839129  0.88929470    -0.14800
C1539       C  0.22704024  0.60389629  0.88776195     0.07300
C1540       C  0.20307347  0.57983298  0.89683960    -0.14800
H1541       H  0.15310600  0.57050708  0.91274339     0.11300
H1542       H  0.18041254  0.67517581  0.89963192     0.11300
H1543       H  0.23641748  0.65758977  0.88244915     0.11300
H1544       H  0.20871470  0.55309306  0.89579611     0.11300
C1545       C  0.22309585  0.51920345  0.78885238    -0.14800
C1546       C  0.25788682  0.52184381  0.78351448     0.07300
C1547       C  0.26964582  0.52218015  0.75318835    -0.14800
C1548       C  0.24693060  0.52300020  0.72873061    -0.14800
C1549       C  0.21209035  0.52380475  0.73419556     0.07300
C1550       C  0.20034214  0.52039176  0.76437907    -0.14800
H1551       H  0.21338855  0.52015064  0.81202540     0.11300
H1552       H  0.29624643  0.52544431  0.74851791     0.12900
H1553       H  0.25657756  0.52674582  0.70576301     0.11300
H1554       H  0.17364039  0.52209717  0.76923070     0.11300
C1555       C  0.51812648  0.55345409  0.60616690    -0.14800
C1556       C  0.51905117  0.58693666  0.61657359     0.07300
C1557       C  0.54412371  0.59612825  0.63777478    -0.14800
C1558       C  0.56642967  0.57160371  0.64958659    -0.14800
C1559       C  0.56335574  0.53760716  0.64072516     0.07300
C1560       C  0.53973976  0.52921935  0.61815647    -0.14800
H1561       H  0.49935875  0.54551339  0.58976255     0.11300
H1562       H  0.54515719  0.62166676  0.64653904     0.11300
H1563       H  0.58483400  0.57882922  0.66656193     0.11300
H1564       H  0.53754708  0.50346661  0.61003731     0.11300
C1565       C  0.35451770  0.59151326  0.49854005    -0.14800
C1566       C  0.38862921  0.59212578  0.50678858     0.07300
C1567       C  0.41267922  0.57671964  0.98804752    -0.14800
C1568       C  0.40300072  0.56357226  0.95985523    -0.14800
C1569       C  0.36912185  0.56521958  0.95054390     0.07300
C1570       C  0.34474162  0.57781397  0.97068889    -0.14800
H1571       H  0.33558310  0.60283672  0.51319508     0.11300
H1572       H  0.43903695  0.57679698  0.49429923     0.11300
H1573       H  0.42221781  0.55368927  0.94466990     0.11300
H1574       H  0.31856301  0.57940229  0.96399930     0.11300
C1575       C  0.37741679  0.60398617  0.70105734    -0.14800
C1576       C  0.40905287  0.61896894  0.69625537     0.07300
C1577       C  0.43021171  0.62496795  0.72128851    -0.14800
C1578       C  0.41964082  0.61602926  0.75078052    -0.14800
C1579       C  0.38767805  0.60163722  0.75532153     0.07300
C1580       C  0.36683662  0.59551599  0.73024439    -0.14800
H1581       H  0.36043680  0.59923087  0.68221292     0.11300
H1582       H  0.45475112  0.63633853  0.71803556     0.11300
H1583       H  0.43583318  0.62136393  0.77004971     0.11300
H1584       H  0.34205632  0.58454244  0.73327369     0.11300
C1585       C  0.28459910  0.65127194  0.62031366    -0.14800
C1586       C  0.30504405  0.62738288  0.60546362     0.07300
C1587       C  0.29279180  0.59439559  0.60148033    -0.14800
C1588       C  0.26148714  0.58501710  0.61317607    -0.14800
C1589       C  0.24159514  0.60833940  0.62931351     0.07300
C1590       C  0.25316761  0.64180133  0.63223110    -0.14800
H1591       H  0.29344716  0.67684427  0.62377606     0.11300
H1592       H  0.30778921  0.57547770  0.58984064     0.11300
H1593       H  0.25328855  0.55915064  0.61020827     0.11300
H1594       H  0.23837515  0.66043014  0.64443566     0.11300
C1595       C  0.38533702  0.82614434  0.61860076    -0.14800
C1596       C  0.37676828  0.83163301  0.64930473     0.07300
C1597       C  0.37665009  0.80431494  0.66985313    -0.14800
C1598       C  0.38578038  0.77197897  0.65987295    -0.14800
C1599       C  0.39394443  0.76648437  0.62902379     0.07300
C1600       C  0.39334761  0.79375078  0.60844866    -0.14800
H1601       H  0.38541170  0.84688087  0.60239987     0.11300
H1602       H  0.37017973  0.80816313  0.69368296     0.11300
H1603       H  0.38603813  0.75124634  0.67605897     0.11300
H1604       H  0.39978296  0.79009615  0.58457589     0.11300
C1605       C  0.55277973  0.92090289  0.89619656    -0.14800
C1606       C  0.51863358  0.92798514  0.89093131     0.07300
C1607       C  0.51031825  0.95463844  0.87103643    -0.14800
C1608       C  0.53515189  0.97467733  0.85773646    -0.14800
C1609       C  0.56924672  0.96922918  0.86432871     0.07300
C1610       C  0.57791049  0.94171186  0.88335174    -0.14800
H1611       H  0.55993092  0.90011814  0.91093238     0.11300
H1612       H  0.48428416  0.96014755  0.86566696     0.11300
H1613       H  0.52736237  0.99557874  0.84339908     0.11300
H1614       H  0.60397464  0.93694951  0.88908128     0.11300
C1615       C  0.41897756  0.72591470  0.87911835    -0.14800
C1616       C  0.39437798  0.75045691  0.88513345     0.07300
C1617       C  0.36028394  0.74237732  0.88125998    -0.14800
C1618       C  0.35091768  0.71011050  0.87148001    -0.14800
C1619       C  0.37547677  0.68513345  0.86642593     0.07300
C1620       C  0.40959461  0.69338973  0.87023079    -0.14800
H1621       H  0.44539755  0.73157734  0.88235979     0.11300
H1622       H  0.34095251  0.76099948  0.88592092     0.11300
H1623       H  0.32444983  0.70440855  0.86868797     0.11300
H1624       H  0.42903567  0.67469766  0.86626001     0.11300
C1625       C  0.47311676  0.79327950  0.51905011    -0.14800
C1626       C  0.47476785  0.78474155  0.98787540     0.07300
C1627       C  0.48107630  0.75100568  0.97981712    -0.14800
C1628       C  0.48071744  0.72566486  0.50226615    -0.14800
C1629       C  0.47520574  0.73387731  0.53315347     0.07300
C1630       C  0.47385813  0.76806658  0.54155314    -0.14800
H1631       H  0.46766298  0.81902849  0.52581228     0.11300
H1632       H  0.48172411  0.74367458  0.95595937     0.11300
H1633       H  0.48123592  0.69946370  0.99518455     0.11300
H1634       H  0.46881954  0.77504151  0.56508616     0.11300
C1635       C  0.28332797  0.87024787  0.90045556    -0.14800
C1636       C  0.30606890  0.89447592  0.91151392     0.07300
C1637       C  0.29602471  0.92851833  0.91239091    -0.14800
C1638       C  0.26454368  0.93831710  0.90144440    -0.14800
C1639       C  0.24229414  0.91436247  0.88917406     0.07300
C1640       C  0.25177714  0.88010055  0.88933290    -0.14800
H1641       H  0.29030603  0.84382433  0.89950110     0.11300
H1642       H  0.31280503  0.94782410  0.92098087     0.11300
H1643       H  0.25806087  0.96488524  0.90183123     0.11300
H1644       H  0.23518613  0.86097906  0.88013975     0.11300
C1645       C  0.37693777  0.90209567  0.81616893    -0.14800
C1646       C  0.41041858  0.89222155  0.82102615     0.07300
C1647       C  0.43299656  0.89144001  0.79630909    -0.14800
C1648       C  0.42205590  0.90096723  0.76708116    -0.14800
C1649       C  0.38842841  0.91096516  0.76245769     0.07300
C1650       C  0.36611024  0.91140007  0.78734390    -0.14800
H1651       H  0.35895105  0.90279088  0.83486212     0.11300
H1652       H  0.45901505  0.88424403  0.79972006     0.11300
H1653       H  0.43964135  0.90005799  0.74812292     0.11300
H1654       H  0.34005034  0.91884543  0.78459533     0.11300
C1655       C  0.34989165  0.93735569  0.54790164    -0.14800
C1656       C  0.37470169  0.94995231  0.56744174     0.07300
C1657       C  0.40847688  0.95086964  0.55753993    -0.14800
C1658       C  0.41745937  0.93761752  0.52907128    -0.14800
C1659       C  0.39281814  0.92272278  0.01075280     0.07300
C1660       C  0.35895145  0.92353118  0.01990283    -0.14800
H1661       H  0.32377808  0.93617592  0.55504515     0.11300
H1662       H  0.42803828  0.96058383  0.57229604     0.11300
H1663       H  0.44366364  0.93732003  0.52214460     0.11300
H1664       H  0.33955572  0.91256105  0.00567048     0.11300
loop_ 
_geom_bond_atom_site_label_1 
_geom_bond_atom_site_label_2 
_geom_bond_distance 
_geom_bond_site_symmetry_2 
_ccdc_geom_bond_type 
Fe1          O17   2.048       .  S
Fe1           O7   2.050       .  S
Fe1          O14   2.080       .  S
Fe1           O6   2.014       .  S
Fe1          O12   1.948       .  S
Fe2           O5   2.054       .  S
Fe2           O9   2.072       .  S
Fe2          O13   2.064       .  S
Fe2          O18   2.056       .  S
Fe2          O12   1.941       .  S
Fe3          O21   2.110       .  S
Fe3           O8   2.061       .  S
Fe3          O15   2.080       .  S
Fe3           O4   2.112       .  S
Fe3          O12   1.962       .  S
O4           C11   1.284       .  A
O5           C19   1.274       .  A
O6           C11   1.270       .  A
O7           C10   1.263       .  A
O8           C20   1.265       .  A
O9           C22   1.273       .  A
C10          O15   1.267       .  A
C10         C774   1.484       .  S
C11         C814   1.466       .  S
O13          C16   1.266       .  A
O14          C16   1.268       .  A
C16         C804   1.483       .  S
O17          C22   1.269       .  A
O18          C20   1.264       .  A
C19          O21   1.283       .  A
C19         C794   1.478       .  S
C20         C784   1.470       .  S
C22         C827   1.458       .  S
Fe23         O39   2.047       .  S
Fe23         O29   2.053       .  S
Fe23         O36   2.082       .  S
Fe23         O28   2.017       .  S
Fe23         O34   1.936       .  S
Fe24         O27   2.051       .  S
Fe24         O31   2.066       .  S
Fe24         O35   2.069       .  S
Fe24         O40   2.060       .  S
Fe24         O34   1.941       .  S
Fe25         O43   2.122       .  S
Fe25         O30   2.068       .  S
Fe25         O37   2.086       .  S
Fe25         O26   2.093       .  S
Fe25         O34   1.955       .  S
O26          C33   1.277       .  A
O27          C41   1.274       .  A
O28          C33   1.266       .  A
O29          C32   1.268       .  A
O30          C42   1.265       .  A
O31          C44   1.267       .  A
C32          O37   1.273       .  A
C32         C724   1.486       .  S
C33         C744   1.466       .  S
O35          C38   1.272       .  A
O36          C38   1.273       .  A
C38         C754   1.480       .  S
O39          C44   1.263       .  A
O40          C42   1.264       .  A
C41          O43   1.286       .  A
C41         C797   1.477       .  S
C42         C767   1.471       .  S
C44         C734   1.458       .  S
Fe45         O61   2.062       .  S
Fe45         O51   2.057       .  S
Fe45         O58   2.064       .  S
Fe45         O50   2.055       .  S
Fe45         O56   1.964       .  S
Fe46         O49   2.048       .  S
Fe46         O53   2.064       .  S
Fe46         O57   2.036       .  S
Fe46         O62   2.074       .  S
Fe46         O56   1.950       .  S
Fe47         O65   2.085       .  S
Fe47         O52   2.090       .  S
Fe47         O59   2.067       .  S
Fe47         O48   2.088       .  S
Fe47         O56   1.967       .  S
O48          C55   1.269       .  A
O49          C63   1.262       .  A
O50          C55   1.267       .  A
O51          C54   1.272       .  A
O52          C64   1.279       .  A
O53          C66   1.268       .  A
C54          O59   1.277       .  A
C54         C737   1.465       .  S
C55         C694   1.485       .  S
O57          C60   1.267       .  A
O58          C60   1.269       .  A
C60         C747   1.461       .  S
O61          C66   1.268       .  A
O62          C64   1.274       .  A
C63          O65   1.270       .  A
C63         C707   1.483       .  S
C64         C714   1.476       .  S
C66         C787   1.477       .  S
Fe67         O83   2.054       .  S
Fe67         O73   2.061       .  S
Fe67         O80   2.076       .  S
Fe67         O72   2.051       .  S
Fe67         O78   1.957       .  S
Fe68         O71   2.057       .  S
Fe68         O75   2.077       .  S
Fe68         O79   2.041       .  S
Fe68         O84   2.079       .  S
Fe68         O78   1.948       .  S
Fe69         O87   2.076       .  S
Fe69         O74   2.089       .  S
Fe69         O81   2.068       .  S
Fe69         O70   2.088       .  S
Fe69         O78   1.959       .  S
O70          C77   1.271       .  A
O71          C85   1.265       .  A
O72          C77   1.268       .  A
O73          C76   1.270       .  A
O74          C86   1.278       .  A
O75          C88   1.271       .  A
C76          O81   1.275       .  A
C76         C677   1.467       .  S
C77         C654   1.483       .  S
O79          C82   1.267       .  A
O80          C82   1.270       .  A
C82         C664   1.467       .  S
O83          C88   1.268       .  A
O84          C86   1.275       .  A
C85          O87   1.270       .  A
C85         C757   1.483       .  S
C86         C717   1.477       .  S
C88         C684   1.477       .  S
Fe89        O105   2.051       .  S
Fe89         O95   2.057       .  S
Fe89        O102   2.077       .  S
Fe89         O94   2.017       .  S
Fe89        O100   1.934       .  S
Fe90         O93   2.049       .  S
Fe90         O97   2.066       .  S
Fe90        O101   2.073       .  S
Fe90        O106   2.066       .  S
Fe90        O100   1.935       .  S
Fe91        O109   2.127       .  S
Fe91         O96   2.064       .  S
Fe91        O103   2.081   1_455  S
Fe91         O92   2.109       .  S
Fe91        O100   1.947       .  S
O92          C99   1.281       .  A
O93         C107   1.273       .  A
O94          C99   1.268       .  A
O95          C98   1.268   1_455  A
O96         C108   1.265       .  A
O97         C110   1.270       .  A
C98         O103   1.270       .  A
C98         C604   1.481       .  S
C99         C634   1.475       .  S
O101        C104   1.272       .  A
O102        C104   1.271       .  A
C104        C617   1.481       .  S
O105        C110   1.267       .  A
O106        C108   1.265       .  A
C107        O109   1.286       .  A
C107        C624   1.482   1_455  S
C108        C687   1.466       .  S
C110        C644   1.460       .  S
Fe111       O127   2.056       .  S
Fe111       O117   2.054       .  S
Fe111       O124   2.081       .  S
Fe111       O116   2.025       .  S
Fe111       O122   1.945       .  S
Fe112       O115   2.052       .  S
Fe112       O119   2.063       .  S
Fe112       O123   2.070       .  S
Fe112       O128   2.058       .  S
Fe112       O122   1.950       .  S
Fe113       O131   2.126       .  S
Fe113       O118   2.073       .  S
Fe113       O125   2.090   1_455  S
Fe113       O114   2.097       .  S
Fe113       O122   1.965       .  S
O114        C121   1.278       .  A
O115        C129   1.276       .  A
O116        C121   1.268       .  A
O117        C120   1.268   1_455  A
O118        C130   1.264       .  A
O119        C132   1.265       .  A
C120        O125   1.272       .  A
C120        C587   1.491       .  S
C121        C667   1.474       .  S
O123        C126   1.274       .  A
O124        C126   1.274       .  A
C126        C704   1.484       .  S
O127        C132   1.265       .  A
O128        C130   1.262       .  A
C129        O131   1.288       .  A
C129        C627   1.480   1_455  S
C130        C597   1.473       .  S
C132        C674   1.467       .  S
Fe133       O149   2.057       .  S
Fe133       O139   2.066       .  S
Fe133       O146   2.080       .  S
Fe133       O138   2.056       .  S
Fe133       O144   1.949       .  S
Fe134       O137   2.051       .  S
Fe134       O141   2.073       .  S
Fe134       O145   2.033       .  S
Fe134       O150   2.076       .  S
Fe134       O144   1.943       .  S
Fe135       O153   2.086       .  S
Fe135       O140   2.084       .  S
Fe135       O147   2.056       .  S
Fe135       O136   2.094   1_565  S
Fe135       O144   1.954       .  S
O136        C143   1.271       .  A
O137        C151   1.264       .  A
O138        C143   1.269   1_565  A
O139        C142   1.272       .  A
O140        C152   1.277       .  A
O141        C154   1.269       .  A
C142        O147   1.274       .  A
C142        C824   1.466       .  S
C143        C564   1.491       .  S
O145        C148   1.267       .  A
O146        C148   1.272       .  A
C148        C817   1.471       .  S
O149        C154   1.268       .  A
O150        C152   1.274       .  A
C151        O153   1.272       .  A
C151        C614   1.483       .  S
C152        C574   1.472       .  S
C154        C764   1.469       .  S
Fe155       O171   2.064       .  S
Fe155       O161   2.065       .  S
Fe155       O168   2.081       .  S
Fe155       O160   2.058       .  S
Fe155       O166   1.955       .  S
Fe156       O159   2.057       .  S
Fe156       O163   2.075       .  S
Fe156       O167   2.034       .  S
Fe156       O172   2.078       .  S
Fe156       O166   1.945       .  S
Fe157       O175   2.082       .  S
Fe157       O162   2.081   1_565  S
Fe157       O169   2.057       .  S
Fe157       O158   2.083   1_565  S
Fe157       O166   1.958       .  S
O158        C165   1.269       .  A
O159        C173   1.266       .  A
O160        C165   1.269   1_565  A
O161        C164   1.272       .  A
O162        C174   1.276   1_545  A
O163        C176   1.269       .  A
C164        O169   1.275       .  A
C164        C647   1.463       .  S
C165        C554   1.485       .  S
O167        C170   1.267       .  A
O168        C170   1.272       .  A
C170        C637   1.464       .  S
O171        C176   1.268       .  A
O172        C174   1.274       .  A
C173        O175   1.271       .  A
C173        C807   1.484       .  S
C174        C577   1.473       .  S
C176        C594   1.476       .  S
Fe177       O193   2.054       .  S
Fe177       O183   2.058       .  S
Fe177       O190   2.085       .  S
Fe177       O182   2.017       .  S
Fe177       O188   1.948       .  S
Fe178       O181   2.057       .  S
Fe178       O185   2.074       .  S
Fe178       O189   2.065       .  S
Fe178       O194   2.056       .  S
Fe178       O188   1.940       .  S
Fe179       O197   2.119       .  S
Fe179       O184   2.061       .  S
Fe179       O191   2.081       .  S
Fe179       O180   2.119       .  S
Fe179       O188   1.961       .  S
O180        C187   1.285       .  A
O181        C195   1.275       .  A
O182        C187   1.269       .  A
O183        C186   1.266       .  A
O184        C196   1.265       .  A
O185        C198   1.272       .  A
C186        O191   1.267       .  A
C186        C727   1.484       .  S
C187        C534   1.472       .  S
O189        C192   1.267       .  A
O190        C192   1.269       .  A
C192        C524   1.479       .  S
O193        C198   1.269       .  A
O194        C196   1.264       .  A
C195        O197   1.285       .  A
C195        C517   1.482       .  S
C196        C504   1.470       .  S
C198        C544   1.466       .  S
Fe199       O215   2.056       .  S
Fe199       O205   2.059       .  S
Fe199       O212   2.081       .  S
Fe199       O204   2.015       .  S
Fe199       O210   1.947       .  S
Fe200       O203   2.058       .  S
Fe200       O207   2.073       .  S
Fe200       O211   2.070       .  S
Fe200       O216   2.055       .  S
Fe200       O210   1.939       .  S
Fe201       O219   2.116       .  S
Fe201       O206   2.070       .  S
Fe201       O213   2.088       .  S
Fe201       O202   2.110       .  S
Fe201       O210   1.961       .  S
O202        C209   1.282       .  A
O203        C217   1.275       .  A
O204        C209   1.268       .  A
O205        C208   1.267       .  A
O206        C218   1.267       .  A
O207        C220   1.272       .  A
C208        O213   1.270       .  A
C208        C584   1.487       .  S
C209        C474   1.463       .  S
O211        C214   1.268       .  A
O212        C214   1.269       .  A
C214        C484   1.484       .  S
O215        C220   1.270       .  A
O216        C218   1.264       .  A
C217        O219   1.285       .  A
C217        C514   1.479       .  S
C218        C494   1.478       .  S
C220        C464   1.465       .  S
Fe221       O237   2.062       .  S
Fe221       O227   2.065       .  S
Fe221       O234   2.071       .  S
Fe221       O226   2.056       .  S
Fe221       O232   1.965       .  S
Fe222       O225   2.044       .  S
Fe222       O229   2.060       .  S
Fe222       O233   2.037       .  S
Fe222       O238   2.076       .  S
Fe222       O232   1.949       .  S
Fe223       O241   2.075       .  S
Fe223       O228   2.091       .  S
Fe223       O235   2.070       .  S
Fe223       O224   2.075       .  S
Fe223       O232   1.966       .  S
O224        C231   1.266       .  A
O225        C239   1.261       .  A
O226        C231   1.267       .  A
O227        C230   1.273       .  A
O228        C240   1.279       .  A
O229        C242   1.267       .  A
C230        O235   1.278       .  A
C230        C467   1.469       .  S
C231        C657   1.480   1_655  S
O233        C236   1.268       .  A
O234        C236   1.271       .  A
C236        C477   1.471       .  S
O237        C242   1.268       .  A
O238        C240   1.274       .  A
C239        O241   1.267       .  A
C239        C444   1.478       .  S
C240        C454   1.476       .  S
C242        C507   1.474       .  S
Fe243       O259   2.056       .  S
Fe243       O249   2.060       .  S
Fe243       O256   2.062       .  S
Fe243       O248   2.048       .  S
Fe243       O254   1.962       .  S
Fe244       O247   2.058       .  S
Fe244       O251   2.068       .  S
Fe244       O255   2.042       .  S
Fe244       O260   2.075       .  S
Fe244       O254   1.948       .  S
Fe245       O263   2.079       .  S
Fe245       O250   2.091       .  S
Fe245       O257   2.067       .  S
Fe245       O246   2.090       .  S
Fe245       O254   1.965       .  S
O246        C253   1.268       .  A
O247        C261   1.264       .  A
O248        C253   1.265       .  A
O249        C252   1.272       .  A
O250        C262   1.280       .  A
O251        C264   1.270       .  A
C252        O257   1.277       .  A
C252        C424   1.465       .  S
C253        C557   1.481   1_655  S
O255        C258   1.268       .  A
O256        C258   1.268       .  A
C258        C414   1.462       .  S
O259        C264   1.268       .  A
O260        C262   1.275       .  A
C261        O263   1.269       .  A
C261        C487   1.486       .  S
C262        C457   1.476       .  S
C264        C434   1.478       .  S
Fe265       O281   2.078       .  S
Fe265       O271   2.054       .  S
Fe265       O278   2.065       .  S
Fe265       O270   2.079       .  S
Fe265       O276   1.950       .  S
Fe266       O269   2.081       .  S
Fe266       O273   2.036       .  S
Fe266       O277   2.068       .  S
Fe266       O282   2.049       .  S
Fe266       O276   1.937       .  S
Fe267       O285   2.080       .  S
Fe267       O272   2.081       .  S
Fe267       O279   2.084   1_545  S
Fe267       O268   2.061       .  S
Fe267       O276   1.963       .  S
O268        C275   1.278       .  A
O269        C283   1.277       .  A
O270        C275   1.277       .  A
O271        C274   1.265   1_545  A
O272        C284   1.267       .  A
O273        C286   1.267       .  A
C274        O279   1.266       .  A
C274        C777   1.487       .  S
C275        C394   1.468       .  S
O277        C280   1.270       .  A
O278        C280   1.270       .  A
C280        C377   1.483       .  S
O281        C286   1.272       .  A
O282        C284   1.261       .  A
C283        O285   1.279       .  A
C283        C384   1.471       .  S
C284        C437   1.477       .  S
C286        C404   1.472       .  S
Fe287       O303   2.046       .  S
Fe287       O293   2.050       .  S
Fe287       O300   2.080       .  S
Fe287       O292   2.019       .  S
Fe287       O298   1.947       .  S
Fe288       O291   2.050       .  S
Fe288       O295   2.070       .  S
Fe288       O299   2.055       .  S
Fe288       O304   2.056       .  S
Fe288       O298   1.949       .  S
Fe289       O307   2.114       .  S
Fe289       O294   2.058       .  S
Fe289       O301   2.076       .  S
Fe289       O290   2.098       .  S
Fe289       O298   1.966       .  S
O290        C297   1.279       .  A
O291        C305   1.274       .  A
O292        C297   1.267       .  A
O293        C296   1.266       .  A
O294        C306   1.264       .  A
O295        C308   1.269       .  A
C296        O301   1.269       .  A
C296        C607   1.484   1_545  S
C297        C417   1.468       .  S
O299        C302   1.268       .  A
O300        C302   1.271       .  A
C302        C447   1.478       .  S
O303        C308   1.265       .  A
O304        C306   1.264       .  A
C305        O307   1.284       .  A
C305        C387   1.474       .  S
C306        C364   1.477       .  S
C308        C427   1.463       .  S
Fe309       O325   2.066       .  S
Fe309       O315   2.071       .  S
Fe309       O322   2.074       .  S
Fe309       O314   2.054       .  S
Fe309       O320   1.964       .  S
Fe310       O313   2.051       .  S
Fe310       O317   2.064       .  S
Fe310       O321   2.043       .  S
Fe310       O326   2.081       .  S
Fe310       O320   1.943       .  S
Fe311       O329   2.085       .  S
Fe311       O316   2.090       .  S
Fe311       O323   2.069       .  S
Fe311       O312   2.089       .  S
Fe311       O320   1.969       .  S
O312        C319   1.268       .  A
O313        C327   1.261       .  A
O314        C319   1.265       .  A
O315        C318   1.275       .  A
O316        C328   1.281       .  A
O317        C330   1.268       .  A
C318        O323   1.279       .  A
C318        C547   1.468       .  S
C319        C697   1.486       .  S
O321        C324   1.269       .  A
O322        C324   1.271       .  A
C324        C537   1.473       .  S
O325        C330   1.268       .  A
O326        C328   1.277       .  A
C327        O329   1.267       .  A
C327        C374   1.479       .  S
C328        C354   1.478       .  S
C330        C497   1.473       .  S
Fe331       O347   2.079       .  S
Fe331       O337   2.020       .  S
Fe331       O344   2.052       .  S
Fe331       O336   2.058       .  S
Fe331       O342   1.947       .  S
Fe332       O335   2.065       .  S
Fe332       O339   2.060       .  S
Fe332       O343   2.082       .  S
Fe332       O348   2.053       .  S
Fe332       O342   1.940       .  S
Fe333       O351   2.063       .  S
Fe333       O338   2.123       .  S
Fe333       O345   2.112       .  S
Fe333       O334   2.084       .  S
Fe333       O342   1.957       .  S
O334        C341   1.270       .  A
O335        C349   1.266       .  A
O336        C341   1.266       .  A
O337        C340   1.270       .  A
O338        C350   1.286       .  A
O339        C352   1.265       .  A
C340        O345   1.283       .  A
C340        C407   1.468       .  S
C341        C567   1.491       .  S
O343        C346   1.275       .  A
O344        C346   1.270       .  A
C346        C397   1.466       .  S
O347        C352   1.267       .  A
O348        C350   1.274       .  A
C349        O351   1.266       .  A
C349        C527   1.482       .  S
C350        C357   1.482       .  S
C352        C367   1.472       .  S
C353        C354   1.404       .  A
C353       C1190   1.403       .  A
C353        H359   1.084       .  S
C354       C1187   1.405       .  A
C355        C356   1.405       .  A
C355       C1186   1.405   1_554  A
C355        H360   1.083       .  S
C356        C357   1.406       .  A
C356        H361   1.083       .  S
C357        C358   1.406   1_554  A
C358       C1185   1.403       .  A
C358       H1194   1.083       .  S
H362       C1190   1.083       .  S
C363        C364   1.404       .  A
C363        C368   1.396       .  A
C363        H369   1.083       .  S
C364        C365   1.407       .  A
C365        C366   1.397       .  A
C365        H370   1.083       .  S
C366        C367   1.403       .  A
C366        H371   1.083       .  S
C367        C368   1.404       .  A
C368        H372   1.083       .  S
C373        C374   1.405       .  A
C373        C378   1.399       .  A
C373        H379   1.083       .  S
C374        C375   1.405       .  A
C375        C376   1.399       .  A
C375        H380   1.083       .  S
C376        C377   1.407       .  A
C376        H381   1.083       .  S
C377        C378   1.407       .  A
C378        H382   1.083       .  S
C383        C384   1.405       .  A
C383        C388   1.402       .  A
C383        H389   1.084       .  S
C384        C385   1.403       .  A
C385        C386   1.401       .  A
C385        H390   1.084       .  S
C386        C387   1.405       .  A
C386        H391   1.083       .  S
C387        C388   1.404       .  A
C388        H392   1.084       .  S
C393        C394   1.408       .  A
C393       C1230   1.398       .  A
C393        H399   1.083       .  S
C394        C395   1.400       .  A
C395        C396   1.391       .  A
C395        H400   1.083       .  S
C396       C1229   1.405       .  A
C396       H1233   1.084       .  S
C397        C398   1.400   1_554  A
C397       C1228   1.405   1_554  A
C398       C1225   1.398       .  A
C398        H402   1.083       .  S
H401       C1228   1.084   1_554  S
C403        C404   1.402       .  A
C403        C408   1.385       .  A
C403        H409   1.084       .  S
C404        C405   1.408       .  A
C405        C406   1.403       .  A
C405        H410   1.083       .  S
C406        C407   1.403       .  A
C406        H411   1.083       .  S
C407        C408   1.403       .  A
C408        H412   1.084       .  S
C413        C414   1.406       .  A
C413       C1250   1.401       .  A
C413        H419   1.083       .  S
C414       C1247   1.397       .  A
C415        C416   1.384       .  A
C415       C1246   1.397       .  A
C415        H420   1.084       .  S
C416        C417   1.406       .  A
C416        H421   1.084       .  S
C417        C418   1.403       .  A
C418       C1245   1.401       .  A
C418        H422   1.083       .  S
C423        C424   1.408       .  A
C423        C428   1.395       .  A
C423        H429   1.083       .  S
C424        C425   1.399       .  A
C425        C426   1.392       .  A
C425        H430   1.083       .  S
C426        C427   1.405       .  A
C426        H431   1.084       .  S
C427        C428   1.399       .  A
C428        H432   1.083       .  S
C433        C434   1.405       .  A
C433        C438   1.396       .  A
C433        H439   1.083       .  S
C434        C435   1.405       .  A
C435        C436   1.397       .  A
C435        H440   1.083       .  S
C436        C437   1.405       .  A
C436        H441   1.083       .  S
C437        C438   1.405       .  A
C438        H442   1.083       .  S
C443        C444   1.407       .  A
C443        C448   1.397       .  A
C443        H449   1.083       .  S
C444        C445   1.404       .  A
C445        C446   1.395       .  A
C445        H450   1.083       .  S
C446        C447   1.406       .  A
C446        H451   1.083       .  S
C447        C448   1.404       .  A
C448        H452   1.083       .  S
C453        C454   1.405       .  A
C453       C1290   1.405   1_554  A
C453        H459   1.083       .  S
C454        C455   1.404       .  A
C455        C456   1.401       .  A
C455        H460   1.084       .  S
C456       C1289   1.404   1_554  A
C456        H461   1.084       .  S
C457        C458   1.405       .  A
C457       C1288   1.404       .  A
C458       C1285   1.405       .  A
C458        H462   1.083       .  S
C463        C464   1.399       .  A
C463        C468   1.398       .  A
C463        H469   1.083       .  S
C464        C465   1.405       .  A
C465        C466   1.391       .  A
C465        H470   1.084       .  S
C466        C467   1.399       .  A
C466        H471   1.083       .  S
C467        C468   1.410       .  A
C468        H472   1.083       .  S
C473        C474   1.402       .  A
C473       C1310   1.402       .  A
C473        H479   1.083       .  S
C474        C475   1.402       .  A
C475        C476   1.384       .  A
C475        H480   1.084       .  S
C476       C1309   1.402       .  A
C476        H481   1.083       .  S
C477        C478   1.408   1_554  A
C477       C1308   1.402   1_554  A
C478       C1305   1.402       .  A
C478        H482   1.083   1_556  S
C483        C484   1.406       .  A
C483        C488   1.396       .  A
C483        H489   1.083       .  S
C484        C485   1.406       .  A
C485        C486   1.403       .  A
C485        H490   1.083       .  S
C486        C487   1.409       .  A
C486        H491   1.083       .  S
C487        C488   1.405       .  A
C488        H492   1.083       .  S
C493        C494   1.406       .  A
C493        C498   1.398       .  A
C493        H499   1.083       .  S
C494        C495   1.405       .  A
C495        C496   1.400       .  A
C495        H500   1.083       .  S
C496        C497   1.404       .  A
C496        H501   1.083       .  S
C497        C498   1.402       .  A
C498        H502   1.083       .  S
C503        C504   1.403       .  A
C503        C508   1.398       .  A
C503        H509   1.083       .  S
C504        C505   1.403       .  A
C505        C506   1.397       .  A
C505        H510   1.083       .  S
C506        C507   1.404       .  A
C506        H511   1.083       .  S
C507        C508   1.405       .  A
C508        H512   1.083       .  S
C513        C514   1.404       .  A
C513        C518   1.402       .  A
C513        H519   1.084       .  S
C514        C515   1.406       .  A
C515        C516   1.404       .  A
C515        H520   1.083       .  S
C516        C517   1.405       .  A
C516        H521   1.083       .  S
C517        C518   1.407       .  A
C518        H522   1.083       .  S
C523        C524   1.405       .  A
C523        C528   1.398       .  A
C523        H529   1.083       .  S
C524        C525   1.404       .  A
C525        C526   1.400       .  A
C525        H530   1.083       .  S
C526        C527   1.407       .  A
C526        H531   1.083       .  S
C527        C528   1.405       .  A
C528        H532   1.083       .  S
C533        C534   1.404       .  A
C533        C538   1.405       .  A
C533        H539   1.083       .  S
C534        C535   1.405       .  A
C535        C536   1.385       .  A
C535        H540   1.084       .  S
C536       C1369   1.400       .  A
C536        H541   1.084       .  S
C537       C1368   1.400       .  A
C537       C1370   1.409       .  A
C538       C1369   1.409       .  A
C538       H1374   1.083   1_554  S
H542       C1370   1.083       .  S
C543        C544   1.405       .  A
C543        C548   1.391       .  A
C543        H549   1.084       .  S
C544        C545   1.400       .  A
C545        C546   1.398       .  A
C545        H550   1.083       .  S
C546        C547   1.409       .  A
C546        H551   1.083       .  S
C547        C548   1.399       .  A
C548        H552   1.083       .  S
C553        C554   1.404       .  A
C553        C558   1.395       .  A
C553        H559   1.083       .  S
C554        C555   1.410       .  A
C555        C556   1.408       .  A
C555        H560   1.083       .  S
C556        C557   1.405       .  A
C556        H561   1.083       .  S
C557        C558   1.404       .  A
C558        H562   1.084   1_455  S
C563        C564   1.412       .  A
C563        C568   1.411       .  A
C563        H569   1.083       .  S
C564        C565   1.404       .  A
C565        C566   1.394       .  A
C565        H570   1.083       .  S
C566        C567   1.408       .  A
C566        H571   1.083       .  S
C567        C568   1.406       .  A
C568        H572   1.083       .  S
C573        C574   1.404       .  A
C573        C578   1.403       .  A
C573        H579   1.083       .  S
C574        C575   1.404       .  A
C575        C576   1.400       .  A
C575        H580   1.084       .  S
C576        C577   1.403       .  A
C576        H581   1.084       .  S
C577        C578   1.404       .  A
C578        H582   1.083       .  S
C583        C584   1.406       .  A
C583        C588   1.414       .  A
C583        H589   1.083       .  S
C584        C585   1.406       .  A
C585        C586   1.393       .  A
C585        H590   1.084       .  S
C586        C587   1.404       .  A
C586        H591   1.084       .  S
C587        C588   1.413       .  A
C588        H592   1.083       .  S
C593        C594   1.403       .  A
C593        C598   1.397       .  A
C593        H599   1.083       .  S
C594        C595   1.407       .  A
C595        C596   1.402       .  A
C595        H600   1.083       .  S
C596        C597   1.402       .  A
C596        H601   1.083       .  S
C597        C598   1.405       .  A
C598        H602   1.084       .  S
C603        C604   1.405       .  A
C603        C608   1.390       .  A
C603        H609   1.084       .  S
C604        C605   1.405       .  A
C605        C606   1.411       .  A
C605        H610   1.083       .  S
C606        C607   1.412       .  A
C606        H611   1.083       .  S
C607        C608   1.402       .  A
C608        H612   1.084       .  S
C613        C614   1.410       .  A
C613        C618   1.402       .  A
C613        H619   1.083       .  S
C614        C615   1.403       .  A
C615        C616   1.393       .  A
C615        H620   1.083       .  S
C616        C617   1.407       .  A
C616        H621   1.083       .  S
C617        C618   1.404       .  A
C618        H622   1.083       .  S
C623        C624   1.408   1_556  A
C623       C1460   1.402       .  A
C623       H1461   1.083   1_655  S
C624        C625   1.404       .  A
C625        C626   1.403       .  A
C625        H630   1.083       .  S
C626       C1459   1.407   1_554  A
C626        H631   1.083       .  S
C627        C628   1.404       .  A
C627       C1458   1.407       .  A
C628       C1455   1.402       .  A
C628        H632   1.084       .  S
H629       C1455   1.083   1_455  S
C633        C634   1.407       .  A
C633        C638   1.384       .  A
C633        H639   1.083       .  S
C634        C635   1.406       .  A
C635        C636   1.403       .  A
C635        H640   1.083       .  S
C636        C637   1.405       .  A
C636        H641   1.083       .  S
C637        C638   1.398       .  A
C638        H642   1.084       .  S
C643        C644   1.404   1_556  A
C643       C1480   1.388       .  A
C643        H649   1.084   1_556  S
C644        C645   1.399   1_554  A
C645       C1478   1.397       .  A
C645        H650   1.083       .  S
C646        C647   1.408       .  A
C646       C1477   1.397       .  A
C646        H651   1.083       .  S
C647        C648   1.398       .  A
C648       C1475   1.388       .  A
C648        H652   1.084       .  S
C653        C654   1.408       .  A
C653        C658   1.406       .  A
C653        H659   1.083       .  S
C654        C655   1.405       .  A
C655        C656   1.396       .  A
C655        H660   1.083       .  S
C656        C657   1.404       .  A
C656        H661   1.083   1_455  S
C657        C658   1.407       .  A
C658        H662   1.083       .  S
C663        C664   1.398       .  A
C663        C668   1.384       .  A
C663        H669   1.084       .  S
C664        C665   1.407       .  A
C665        C666   1.404       .  A
C665        H670   1.083       .  S
C666        C667   1.405       .  A
C666        H671   1.083       .  S
C667        C668   1.406       .  A
C668        H672   1.083       .  S
C673        C678   1.393       .  A
C673       C1506   1.407       .  A
C673       H1511   1.084       .  S
C674       C1505   1.407       .  A
C674       C1507   1.399       .  A
C675        C676   1.396       .  A
C675       C1506   1.399       .  A
C675        H680   1.083       .  S
C676        C677   1.408       .  A
C676        H681   1.083       .  S
C677        C678   1.399       .  A
C678        H682   1.083       .  S
H679       C1505   1.084       .  S
C683        C684   1.405       .  A
C683        C688   1.395       .  A
C683        H689   1.083       .  S
C684        C685   1.407       .  A
C685        C686   1.400       .  A
C685        H690   1.083       .  S
C686        C687   1.401       .  A
C686        H691   1.083       .  S
C687        C688   1.402       .  A
C688        H692   1.084       .  S
C693        C694   1.405       .  A
C693        C698   1.396       .  A
C693        H699   1.083       .  S
C694        C695   1.408       .  A
C695        C696   1.409       .  A
C695        H700   1.083       .  S
C696        C697   1.408       .  A
C696        H701   1.083       .  S
C697        C698   1.405       .  A
C698        H702   1.083       .  S
C703        C704   1.408       .  A
C703        C708   1.395       .  A
C703        H709   1.083       .  S
C704        C705   1.405       .  A
C705        C706   1.401       .  A
C705        H710   1.083       .  S
C706        C707   1.409       .  A
C706        H711   1.083       .  S
C707        C708   1.403       .  A
C708        H712   1.083       .  S
C713        C714   1.405       .  A
C713        C718   1.404       .  A
C713        H719   1.084       .  S
C714        C715   1.404       .  A
C715        C716   1.402       .  A
C715        H720   1.083       .  S
C716        C717   1.404       .  A
C716        H721   1.084       .  S
C717        C718   1.405       .  A
C718        H722   1.083       .  S
C723        C724   1.403       .  A
C723        C728   1.391       .  A
C723        H729   1.084       .  S
C724        C725   1.412       .  A
C725        C726   1.413       .  A
C725        H730   1.083       .  S
C726        C727   1.407       .  A
C726        H731   1.083       .  S
C727        C728   1.405       .  A
C728        H732   1.084       .  S
C733        C734   1.404   1_556  A
C733       C1570   1.391       .  A
C733        H739   1.084   1_556  S
C734       C1567   1.397   1_554  A
C735        C736   1.394       .  A
C735       C1566   1.397       .  A
C735       H1572   1.083       .  S
C736        C737   1.409       .  A
C736        H741   1.083       .  S
C737        C738   1.399       .  A
C738       C1565   1.391       .  A
C738        H742   1.083       .  S
H740       C1567   1.083       .  S
C743        C744   1.405       .  A
C743        C748   1.383       .  A
C743        H749   1.084       .  S
C744        C745   1.403       .  A
C745        C746   1.400       .  A
C745        H750   1.083       .  S
C746        C747   1.405       .  A
C746        H751   1.083       .  S
C747        C748   1.398       .  A
C748        H752   1.084       .  S
C753        C754   1.405       .  A
C753        C758   1.402       .  A
C753        H759   1.083       .  S
C754        C755   1.405       .  A
C755        C756   1.393       .  A
C755        H760   1.083       .  S
C756        C757   1.404       .  A
C756        H761   1.083       .  S
C757        C758   1.409       .  A
C758        H762   1.083       .  S
C763        C764   1.401       .  A
C763        C768   1.394       .  A
C763        H769   1.084       .  S
C764        C765   1.405       .  A
C765        C766   1.400       .  A
C765        H770   1.083       .  S
C766        C767   1.404       .  A
C766        H771   1.083       .  S
C767        C768   1.404       .  A
C768        H772   1.084       .  S
C773        C774   1.405       .  A
C773        C778   1.409       .  A
C773        H779   1.083       .  S
C774        C775   1.407       .  A
C775        C776   1.392       .  A
C775        H780   1.084       .  S
C776        C777   1.403       .  A
C776        H781   1.083       .  S
C777        C778   1.413       .  A
C778        H782   1.083       .  S
C783        C784   1.402       .  A
C783        C788   1.397       .  A
C783        H789   1.083       .  S
C784        C785   1.403       .  A
C785        C786   1.399       .  A
C785        H790   1.083       .  S
C786        C787   1.406       .  A
C786        H791   1.083       .  S
C787        C788   1.405       .  A
C788        H792   1.083       .  S
C793        C798   1.401       .  A
C793       C1626   1.406   1_554  A
C793        H799   1.083       .  S
C794        C795   1.404       .  A
C794       C1625   1.406       .  A
C795       C1628   1.403       .  A
C795        H800   1.084       .  S
C796        C797   1.406       .  A
C796       C1627   1.403   1_554  A
C796       H1633   1.083   1_554  S
C797        C798   1.404       .  A
C798        H802   1.084       .  S
H801       C1628   1.083       .  S
C803        C804   1.406       .  A
C803        C808   1.401       .  A
C803        H809   1.083       .  S
C804        C805   1.406       .  A
C805        C806   1.395       .  A
C805        H810   1.083       .  S
C806        C807   1.405       .  A
C806        H811   1.083       .  S
C807        C808   1.408       .  A
C808        H812   1.083       .  S
C813        C814   1.403       .  A
C813        C818   1.383       .  A
C813        H819   1.084       .  S
C814        C815   1.402       .  A
C815        C816   1.403       .  A
C815        H820   1.083       .  S
C816        C817   1.408       .  A
C816        H821   1.083       .  S
C817        C818   1.401       .  A
C818        H822   1.083       .  S
C823        C824   1.399       .  A
C823       C1660   1.388       .  A
C823        H829   1.083       .  S
C824        C825   1.409       .  A
C825        C826   1.397       .  A
C825        H830   1.083       .  S
C826       C1659   1.398       .  A
C826        H831   1.083       .  S
C827        C828   1.403       .  A
C827       C1658   1.398       .  A
C828       C1655   1.388       .  A
C828        H832   1.084       .  S
Fe833       O849   2.048       .  S
Fe833       O839   2.050       .  S
Fe833       O846   2.080       .  S
Fe833       O838   2.014       .  S
Fe833       O844   1.948       .  S
Fe834       O837   2.054       .  S
Fe834       O841   2.072       .  S
Fe834       O845   2.064       .  S
Fe834       O850   2.056       .  S
Fe834       O844   1.941       .  S
Fe835       O853   2.110       .  S
Fe835       O840   2.061       .  S
Fe835       O847   2.080       .  S
Fe835       O836   2.112       .  S
Fe835       O844   1.962       .  S
O836        C843   1.284       .  A
O837        C851   1.274       .  A
O838        C843   1.270       .  A
O839        C842   1.263       .  A
O840        C852   1.265       .  A
O841        C854   1.273       .  A
C842        O847   1.267       .  A
C842       C1606   1.484       .  S
C843       C1646   1.466       .  S
O845        C848   1.266       .  A
O846        C848   1.268       .  A
C848       C1636   1.483       .  S
O849        C854   1.269       .  A
O850        C852   1.264       .  A
C851        O853   1.283       .  A
C851       C1626   1.478       .  S
C852       C1616   1.470       .  S
C854       C1659   1.458   1_556  S
Fe855       O871   2.047       .  S
Fe855       O861   2.053       .  S
Fe855       O868   2.082       .  S
Fe855       O860   2.017       .  S
Fe855       O866   1.936       .  S
Fe856       O859   2.051       .  S
Fe856       O863   2.066       .  S
Fe856       O867   2.069       .  S
Fe856       O872   2.060       .  S
Fe856       O866   1.941       .  S
Fe857       O875   2.122       .  S
Fe857       O862   2.068       .  S
Fe857       O869   2.086       .  S
Fe857       O858   2.093       .  S
Fe857       O866   1.955       .  S
O858        C865   1.277       .  A
O859        C873   1.274       .  A
O860        C865   1.266       .  A
O861        C864   1.268       .  A
O862        C874   1.265       .  A
O863        C876   1.267       .  A
C864        O869   1.273       .  A
C864       C1556   1.486       .  S
C865       C1576   1.466       .  S
O867        C870   1.272       .  A
O868        C870   1.273       .  A
C870       C1586   1.480       .  S
O871        C876   1.263       .  A
O872        C874   1.264       .  A
C873        O875   1.286       .  A
C873       C1629   1.477       .  S
C874       C1599   1.471       .  S
C876       C1566   1.458       .  S
Fe877       O893   2.062       .  S
Fe877       O883   2.057       .  S
Fe877       O890   2.064       .  S
Fe877       O882   2.055       .  S
Fe877       O888   1.964       .  S
Fe878       O881   2.048       .  S
Fe878       O885   2.064       .  S
Fe878       O889   2.036       .  S
Fe878       O894   2.074       .  S
Fe878       O888   1.950       .  S
Fe879       O897   2.085       .  S
Fe879       O884   2.090       .  S
Fe879       O891   2.067       .  S
Fe879       O880   2.088       .  S
Fe879       O888   1.967       .  S
O880        C887   1.269       .  A
O881        C895   1.262       .  A
O882        C887   1.267       .  A
O883        C886   1.272       .  A
O884        C896   1.279       .  A
O885        C898   1.268       .  A
C886        O891   1.277       .  A
C886       C1569   1.465       .  S
C887       C1526   1.485       .  S
O889        C892   1.267       .  A
O890        C892   1.269       .  A
C892       C1579   1.461       .  S
O893        C898   1.268       .  A
O894        C896   1.274       .  A
C895        O897   1.270       .  A
C895       C1539   1.483       .  S
C896       C1546   1.476       .  S
C898       C1619   1.477       .  S
Fe899       O915   2.054       .  S
Fe899       O905   2.061       .  S
Fe899       O912   2.076       .  S
Fe899       O904   2.051       .  S
Fe899       O910   1.957       .  S
Fe900       O903   2.057       .  S
Fe900       O907   2.077       .  S
Fe900       O911   2.041       .  S
Fe900       O916   2.079       .  S
Fe900       O910   1.948       .  S
Fe901       O919   2.076       .  S
Fe901       O906   2.089       .  S
Fe901       O913   2.068       .  S
Fe901       O902   2.088       .  S
Fe901       O910   1.959       .  S
O902        C909   1.271       .  A
O903        C917   1.265       .  A
O904        C909   1.268       .  A
O905        C908   1.270       .  A
O906        C918   1.278       .  A
O907        C920   1.271       .  A
C908        O913   1.275       .  A
C908       C1509   1.467       .  S
C909       C1486   1.483       .  S
O911        C914   1.267       .  A
O912        C914   1.270       .  A
C914       C1496   1.467       .  S
O915        C920   1.268       .  A
O916        C918   1.275       .  A
C917        O919   1.270       .  A
C917       C1589   1.483       .  S
C918       C1549   1.477       .  S
C920       C1516   1.477       .  S
Fe921       O937   2.051       .  S
Fe921       O927   2.057       .  S
Fe921       O934   2.077       .  S
Fe921       O926   2.017       .  S
Fe921       O932   1.934       .  S
Fe922       O925   2.049       .  S
Fe922       O929   2.066       .  S
Fe922       O933   2.073       .  S
Fe922       O938   2.066       .  S
Fe922       O932   1.935       .  S
Fe923       O941   2.127       .  S
Fe923       O928   2.064       .  S
Fe923       O935   2.081   1_455  S
Fe923       O924   2.109       .  S
Fe923       O932   1.947       .  S
O924        C931   1.281       .  A
O925        C939   1.273       .  A
O926        C931   1.268       .  A
O927        C930   1.268   1_455  A
O928        C940   1.265       .  A
O929        C942   1.270       .  A
C930        O935   1.270       .  A
C930       C1436   1.481       .  S
C931       C1466   1.475       .  S
O933        C936   1.272       .  A
O934        C936   1.271       .  A
C936       C1449   1.481       .  S
O937        C942   1.267       .  A
O938        C940   1.265       .  A
C939        O941   1.286       .  A
C939       C1456   1.482   1_455  S
C940       C1519   1.466       .  S
C942       C1476   1.460       .  S
Fe943       O959   2.056       .  S
Fe943       O949   2.054       .  S
Fe943       O956   2.081       .  S
Fe943       O948   2.025       .  S
Fe943       O954   1.945       .  S
Fe944       O947   2.052       .  S
Fe944       O951   2.063       .  S
Fe944       O955   2.070       .  S
Fe944       O960   2.058       .  S
Fe944       O954   1.950       .  S
Fe945       O963   2.126       .  S
Fe945       O950   2.073       .  S
Fe945       O957   2.090   1_455  S
Fe945       O946   2.097       .  S
Fe945       O954   1.965       .  S
O946        C953   1.278       .  A
O947        C961   1.276       .  A
O948        C953   1.268       .  A
O949        C952   1.268   1_455  A
O950        C962   1.264       .  A
O951        C964   1.265       .  A
C952        O957   1.272       .  A
C952       C1419   1.491       .  S
C953       C1499   1.474       .  S
O955        C958   1.274       .  A
O956        C958   1.274       .  A
C958       C1536   1.484       .  S
O959        C964   1.265       .  A
O960        C962   1.262       .  A
C961        O963   1.288       .  A
C961       C1459   1.480   1_455  S
C962       C1429   1.473       .  S
C964       C1506   1.467   1_556  S
Fe965       O981   2.057       .  S
Fe965       O971   2.066       .  S
Fe965       O978   2.080       .  S
Fe965       O970   2.056       .  S
Fe965       O976   1.949       .  S
Fe966       O969   2.051       .  S
Fe966       O973   2.073       .  S
Fe966       O977   2.033       .  S
Fe966       O982   2.076       .  S
Fe966       O976   1.943       .  S
Fe967       O985   2.086       .  S
Fe967       O972   2.084       .  S
Fe967       O979   2.056       .  S
Fe967       O968   2.094   1_565  S
Fe967       O976   1.954       .  S
O968        C975   1.271       .  A
O969        C983   1.264       .  A
O970        C975   1.269   1_565  A
O971        C974   1.272       .  A
O972        C984   1.277       .  A
O973        C986   1.269       .  A
C974        O979   1.274       .  A
C974       C1656   1.466       .  S
C975       C1396   1.491       .  S
O977        C980   1.267       .  A
O978        C980   1.272       .  A
C980       C1649   1.471       .  S
O981        C986   1.268       .  A
O982        C984   1.274       .  A
C983        O985   1.272       .  A
C983       C1446   1.483       .  S
C984       C1406   1.472       .  S
C986       C1596   1.469       .  S
Fe987      O1003   2.064       .  S
Fe987       O993   2.065       .  S
Fe987      O1000   2.081       .  S
Fe987       O992   2.058       .  S
Fe987       O998   1.955       .  S
Fe988       O991   2.057       .  S
Fe988       O995   2.075       .  S
Fe988       O999   2.034       .  S
Fe988      O1004   2.078       .  S
Fe988       O998   1.945       .  S
Fe989      O1007   2.082       .  S
Fe989       O994   2.081   1_565  S
Fe989      O1001   2.057       .  S
Fe989       O990   2.083   1_565  S
Fe989       O998   1.958       .  S
O990        C997   1.269       .  A
O991       C1005   1.266       .  A
O992        C997   1.269   1_565  A
O993        C996   1.272       .  A
O994       C1006   1.276   1_545  A
O995       C1008   1.269       .  A
C996       O1001   1.275       .  A
C996       C1479   1.463       .  S
C997       C1386   1.485       .  S
O999       C1002   1.267       .  A
O1000      C1002   1.272       .  A
C1002      C1469   1.464       .  S
O1003      C1008   1.268       .  A
O1004      C1006   1.274       .  A
C1005      O1007   1.271       .  A
C1005      C1639   1.484       .  S
C1006      C1409   1.473       .  S
C1008      C1426   1.476       .  S
Fe1009     O1025   2.054       .  S
Fe1009     O1015   2.058       .  S
Fe1009     O1022   2.085       .  S
Fe1009     O1014   2.017       .  S
Fe1009     O1020   1.948       .  S
Fe1010     O1013   2.057       .  S
Fe1010     O1017   2.074       .  S
Fe1010     O1021   2.065       .  S
Fe1010     O1026   2.056       .  S
Fe1010     O1020   1.940       .  S
Fe1011     O1029   2.119       .  S
Fe1011     O1016   2.061       .  S
Fe1011     O1023   2.081       .  S
Fe1011     O1012   2.119       .  S
Fe1011     O1020   1.961       .  S
O1012      C1019   1.285       .  A
O1013      C1027   1.275       .  A
O1014      C1019   1.269       .  A
O1015      C1018   1.266       .  A
O1016      C1028   1.265       .  A
O1017      C1030   1.272       .  A
C1018      O1023   1.267       .  A
C1018      C1559   1.484       .  S
C1019      C1366   1.472       .  S
O1021      C1024   1.267       .  A
O1022      C1024   1.269       .  A
C1024      C1356   1.479       .  S
O1025      C1030   1.269       .  A
O1026      C1028   1.264       .  A
C1027      O1029   1.285       .  A
C1027      C1349   1.482       .  S
C1028      C1336   1.470       .  S
C1030      C1376   1.466       .  S
Fe1031     O1047   2.056       .  S
Fe1031     O1037   2.059       .  S
Fe1031     O1044   2.081       .  S
Fe1031     O1036   2.015       .  S
Fe1031     O1042   1.947       .  S
Fe1032     O1035   2.058       .  S
Fe1032     O1039   2.073       .  S
Fe1032     O1043   2.070       .  S
Fe1032     O1048   2.055       .  S
Fe1032     O1042   1.939       .  S
Fe1033     O1051   2.116       .  S
Fe1033     O1038   2.070       .  S
Fe1033     O1045   2.088       .  S
Fe1033     O1034   2.110       .  S
Fe1033     O1042   1.961       .  S
O1034      C1041   1.282       .  A
O1035      C1049   1.275       .  A
O1036      C1041   1.268       .  A
O1037      C1040   1.267       .  A
O1038      C1050   1.267       .  A
O1039      C1052   1.272       .  A
C1040      O1045   1.270       .  A
C1040      C1416   1.487       .  S
C1041      C1306   1.463       .  S
O1043      C1046   1.268       .  A
O1044      C1046   1.269       .  A
C1046      C1316   1.484       .  S
O1047      C1052   1.270       .  A
O1048      C1050   1.264       .  A
C1049      O1051   1.285       .  A
C1049      C1346   1.479       .  S
C1050      C1326   1.478       .  S
C1052      C1296   1.465       .  S
Fe1053     O1069   2.062       .  S
Fe1053     O1059   2.065       .  S
Fe1053     O1066   2.071       .  S
Fe1053     O1058   2.056       .  S
Fe1053     O1064   1.965       .  S
Fe1054     O1057   2.044       .  S
Fe1054     O1061   2.060       .  S
Fe1054     O1065   2.037       .  S
Fe1054     O1070   2.076       .  S
Fe1054     O1064   1.949       .  S
Fe1055     O1073   2.075       .  S
Fe1055     O1060   2.091       .  S
Fe1055     O1067   2.070       .  S
Fe1055     O1056   2.075       .  S
Fe1055     O1064   1.966       .  S
O1056      C1063   1.266       .  A
O1057      C1071   1.261       .  A
O1058      C1063   1.267       .  A
O1059      C1062   1.273       .  A
O1060      C1072   1.279       .  A
O1061      C1074   1.267       .  A
C1062      O1067   1.278       .  A
C1062      C1299   1.469       .  S
C1063      C1489   1.480   1_655  S
O1065      C1068   1.268       .  A
O1066      C1068   1.271       .  A
C1068      C1309   1.471       .  S
O1069      C1074   1.268       .  A
O1070      C1072   1.274       .  A
C1071      O1073   1.267       .  A
C1071      C1276   1.478       .  S
C1072      C1286   1.476       .  S
C1074      C1339   1.474       .  S
Fe1075     O1091   2.056       .  S
Fe1075     O1081   2.060       .  S
Fe1075     O1088   2.062       .  S
Fe1075     O1080   2.048       .  S
Fe1075     O1086   1.962       .  S
Fe1076     O1079   2.058       .  S
Fe1076     O1083   2.068       .  S
Fe1076     O1087   2.042       .  S
Fe1076     O1092   2.075       .  S
Fe1076     O1086   1.948       .  S
Fe1077     O1095   2.079       .  S
Fe1077     O1082   2.091       .  S
Fe1077     O1089   2.067       .  S
Fe1077     O1078   2.090       .  S
Fe1077     O1086   1.965       .  S
O1078      C1085   1.268       .  A
O1079      C1093   1.264       .  A
O1080      C1085   1.265       .  A
O1081      C1084   1.272       .  A
O1082      C1094   1.280       .  A
O1083      C1096   1.270       .  A
C1084      O1089   1.277       .  A
C1084      C1256   1.465       .  S
C1085      C1389   1.481   1_655  S
O1087      C1090   1.268       .  A
O1088      C1090   1.268       .  A
C1090      C1246   1.462   1_556  S
O1091      C1096   1.268       .  A
O1092      C1094   1.275       .  A
C1093      O1095   1.269       .  A
C1093      C1319   1.486       .  S
C1094      C1289   1.476       .  S
C1096      C1266   1.478       .  S
Fe1097     O1113   2.078       .  S
Fe1097     O1103   2.054       .  S
Fe1097     O1110   2.065       .  S
Fe1097     O1102   2.079       .  S
Fe1097     O1108   1.950       .  S
Fe1098     O1101   2.081       .  S
Fe1098     O1105   2.036       .  S
Fe1098     O1109   2.068       .  S
Fe1098     O1114   2.049       .  S
Fe1098     O1108   1.937       .  S
Fe1099     O1117   2.080       .  S
Fe1099     O1104   2.081       .  S
Fe1099     O1111   2.084   1_545  S
Fe1099     O1100   2.061       .  S
Fe1099     O1108   1.963       .  S
O1100      C1107   1.278       .  A
O1101      C1115   1.277       .  A
O1102      C1107   1.277       .  A
O1103      C1106   1.265   1_545  A
O1104      C1116   1.267       .  A
O1105      C1118   1.267       .  A
C1106      O1111   1.266       .  A
C1106      C1609   1.487       .  S
C1107      C1226   1.468       .  S
O1109      C1112   1.270       .  A
O1110      C1112   1.270       .  A
C1112      C1209   1.483       .  S
O1113      C1118   1.272       .  A
O1114      C1116   1.261       .  A
C1115      O1117   1.279       .  A
C1115      C1216   1.471       .  S
C1116      C1269   1.477       .  S
C1118      C1236   1.472       .  S
Fe1119     O1135   2.046       .  S
Fe1119     O1125   2.050       .  S
Fe1119     O1132   2.080       .  S
Fe1119     O1124   2.019       .  S
Fe1119     O1130   1.947       .  S
Fe1120     O1123   2.050       .  S
Fe1120     O1127   2.070       .  S
Fe1120     O1131   2.055       .  S
Fe1120     O1136   2.056       .  S
Fe1120     O1130   1.949       .  S
Fe1121     O1139   2.114       .  S
Fe1121     O1126   2.058       .  S
Fe1121     O1133   2.076       .  S
Fe1121     O1122   2.098       .  S
Fe1121     O1130   1.966       .  S
O1122      C1129   1.279       .  A
O1123      C1137   1.274       .  A
O1124      C1129   1.267       .  A
O1125      C1128   1.266       .  A
O1126      C1138   1.264       .  A
O1127      C1140   1.269       .  A
C1128      O1133   1.269       .  A
C1128      C1439   1.484   1_545  S
C1129      C1249   1.468       .  S
O1131      C1134   1.268       .  A
O1132      C1134   1.271       .  A
C1134      C1279   1.478       .  S
O1135      C1140   1.265       .  A
O1136      C1138   1.264       .  A
C1137      O1139   1.284       .  A
C1137      C1219   1.474       .  S
C1138      C1196   1.477       .  S
C1140      C1259   1.463       .  S
Fe1141     O1157   2.066       .  S
Fe1141     O1147   2.071       .  S
Fe1141     O1154   2.074       .  S
Fe1141     O1146   2.054       .  S
Fe1141     O1152   1.964       .  S
Fe1142     O1145   2.051       .  S
Fe1142     O1149   2.064       .  S
Fe1142     O1153   2.043       .  S
Fe1142     O1158   2.081       .  S
Fe1142     O1152   1.943       .  S
Fe1143     O1161   2.085       .  S
Fe1143     O1148   2.090       .  S
Fe1143     O1155   2.069       .  S
Fe1143     O1144   2.089       .  S
Fe1143     O1152   1.969       .  S
O1144      C1151   1.268       .  A
O1145      C1159   1.261       .  A
O1146      C1151   1.265       .  A
O1147      C1150   1.275       .  A
O1148      C1160   1.281       .  A
O1149      C1162   1.268       .  A
C1150      O1155   1.279       .  A
C1150      C1379   1.468       .  S
C1151      C1529   1.486       .  S
O1153      C1156   1.269       .  A
O1154      C1156   1.271       .  A
C1156      C1369   1.473   1_556  S
O1157      C1162   1.268       .  A
O1158      C1160   1.277       .  A
C1159      O1161   1.267       .  A
C1159      C1206   1.479       .  S
C1160      C1186   1.478       .  S
C1162      C1329   1.473       .  S
Fe1163     O1179   2.079       .  S
Fe1163     O1169   2.020       .  S
Fe1163     O1176   2.052       .  S
Fe1163     O1168   2.058       .  S
Fe1163     O1174   1.947       .  S
Fe1164     O1167   2.065       .  S
Fe1164     O1171   2.060       .  S
Fe1164     O1175   2.082       .  S
Fe1164     O1180   2.053       .  S
Fe1164     O1174   1.940       .  S
Fe1165     O1183   2.063       .  S
Fe1165     O1170   2.123       .  S
Fe1165     O1177   2.112       .  S
Fe1165     O1166   2.084       .  S
Fe1165     O1174   1.957       .  S
O1166      C1173   1.270       .  A
O1167      C1181   1.266       .  A
O1168      C1173   1.266       .  A
O1169      C1172   1.270       .  A
O1170      C1182   1.286       .  A
O1171      C1184   1.265       .  A
C1172      O1177   1.283       .  A
C1172      C1239   1.468       .  S
C1173      C1399   1.491       .  S
O1175      C1178   1.275       .  A
O1176      C1178   1.270       .  A
C1178      C1229   1.466       .  S
O1179      C1184   1.267       .  A
O1180      C1182   1.274       .  A
C1181      O1183   1.266       .  A
C1181      C1359   1.482       .  S
C1182      C1189   1.482       .  S
C1184      C1199   1.472       .  S
C1185      C1186   1.404       .  A
C1185      H1191   1.084       .  S
C1187      C1188   1.405       .  A
C1187      H1192   1.083       .  S
C1188      C1189   1.406       .  A
C1188      H1193   1.083       .  S
C1189      C1190   1.406       .  A
C1195      C1196   1.404       .  A
C1195      C1200   1.396       .  A
C1195      H1201   1.083       .  S
C1196      C1197   1.407       .  A
C1197      C1198   1.397       .  A
C1197      H1202   1.083       .  S
C1198      C1199   1.403       .  A
C1198      H1203   1.083       .  S
C1199      C1200   1.404       .  A
C1200      H1204   1.083       .  S
C1205      C1206   1.405       .  A
C1205      C1210   1.399       .  A
C1205      H1211   1.083       .  S
C1206      C1207   1.405       .  A
C1207      C1208   1.399       .  A
C1207      H1212   1.083       .  S
C1208      C1209   1.407       .  A
C1208      H1213   1.083       .  S
C1209      C1210   1.407       .  A
C1210      H1214   1.083       .  S
C1215      C1216   1.405       .  A
C1215      C1220   1.402       .  A
C1215      H1221   1.084       .  S
C1216      C1217   1.403       .  A
C1217      C1218   1.401       .  A
C1217      H1222   1.084       .  S
C1218      C1219   1.405       .  A
C1218      H1223   1.083       .  S
C1219      C1220   1.404       .  A
C1220      H1224   1.084       .  S
C1225      C1226   1.408       .  A
C1225      H1231   1.083       .  S
C1226      C1227   1.400       .  A
C1227      C1228   1.391       .  A
C1227      H1232   1.083       .  S
C1229      C1230   1.400       .  A
C1230      H1234   1.083       .  S
C1235      C1236   1.402       .  A
C1235      C1240   1.385       .  A
C1235      H1241   1.084       .  S
C1236      C1237   1.408       .  A
C1237      C1238   1.403       .  A
C1237      H1242   1.083       .  S
C1238      C1239   1.403       .  A
C1238      H1243   1.083       .  S
C1239      C1240   1.403       .  A
C1240      H1244   1.084       .  S
C1245      C1246   1.406       .  A
C1245      H1251   1.083   1_554  S
C1247      C1248   1.384       .  A
C1247      H1252   1.084       .  S
C1248      C1249   1.406       .  A
C1248      H1253   1.084       .  S
C1249      C1250   1.403       .  A
C1250      H1254   1.083       .  S
C1255      C1256   1.408       .  A
C1255      C1260   1.395       .  A
C1255      H1261   1.083       .  S
C1256      C1257   1.399       .  A
C1257      C1258   1.392       .  A
C1257      H1262   1.083       .  S
C1258      C1259   1.405       .  A
C1258      H1263   1.084       .  S
C1259      C1260   1.399       .  A
C1260      H1264   1.083       .  S
C1265      C1266   1.405       .  A
C1265      C1270   1.396       .  A
C1265      H1271   1.083       .  S
C1266      C1267   1.405       .  A
C1267      C1268   1.397       .  A
C1267      H1272   1.083       .  S
C1268      C1269   1.405       .  A
C1268      H1273   1.083       .  S
C1269      C1270   1.405       .  A
C1270      H1274   1.083       .  S
C1275      C1276   1.407       .  A
C1275      C1280   1.397       .  A
C1275      H1281   1.083       .  S
C1276      C1277   1.404       .  A
C1277      C1278   1.395       .  A
C1277      H1282   1.083       .  S
C1278      C1279   1.406       .  A
C1278      H1283   1.083       .  S
C1279      C1280   1.404       .  A
C1280      H1284   1.083       .  S
C1285      C1286   1.405       .  A
C1285      H1291   1.083       .  S
C1286      C1287   1.404       .  A
C1287      C1288   1.401       .  A
C1287      H1292   1.084       .  S
C1288      H1293   1.084       .  S
C1289      C1290   1.405       .  A
C1290      H1294   1.083       .  S
C1295      C1296   1.399       .  A
C1295      C1300   1.398       .  A
C1295      H1301   1.083       .  S
C1296      C1297   1.405       .  A
C1297      C1298   1.391       .  A
C1297      H1302   1.084       .  S
C1298      C1299   1.399       .  A
C1298      H1303   1.083       .  S
C1299      C1300   1.410       .  A
C1300      H1304   1.083       .  S
C1305      C1306   1.402       .  A
C1305      H1311   1.083       .  S
C1306      C1307   1.402       .  A
C1307      C1308   1.384       .  A
C1307      H1312   1.084       .  S
C1308      H1313   1.083       .  S
C1309      C1310   1.408       .  A
C1310      H1314   1.083       .  S
C1315      C1316   1.406       .  A
C1315      C1320   1.396       .  A
C1315      H1321   1.083       .  S
C1316      C1317   1.406       .  A
C1317      C1318   1.403       .  A
C1317      H1322   1.083       .  S
C1318      C1319   1.409       .  A
C1318      H1323   1.083       .  S
C1319      C1320   1.405       .  A
C1320      H1324   1.083       .  S
C1325      C1326   1.406       .  A
C1325      C1330   1.398       .  A
C1325      H1331   1.083       .  S
C1326      C1327   1.405       .  A
C1327      C1328   1.400       .  A
C1327      H1332   1.083       .  S
C1328      C1329   1.404       .  A
C1328      H1333   1.083       .  S
C1329      C1330   1.402       .  A
C1330      H1334   1.083       .  S
C1335      C1336   1.403       .  A
C1335      C1340   1.398       .  A
C1335      H1341   1.083       .  S
C1336      C1337   1.403       .  A
C1337      C1338   1.397       .  A
C1337      H1342   1.083       .  S
C1338      C1339   1.404       .  A
C1338      H1343   1.083       .  S
C1339      C1340   1.405       .  A
C1340      H1344   1.083       .  S
C1345      C1346   1.404       .  A
C1345      C1350   1.402       .  A
C1345      H1351   1.084       .  S
C1346      C1347   1.406       .  A
C1347      C1348   1.404       .  A
C1347      H1352   1.083       .  S
C1348      C1349   1.405       .  A
C1348      H1353   1.083       .  S
C1349      C1350   1.406       .  A
C1350      H1354   1.083       .  S
C1355      C1356   1.405       .  A
C1355      C1360   1.398       .  A
C1355      H1361   1.083       .  S
C1356      C1357   1.404       .  A
C1357      C1358   1.400       .  A
C1357      H1362   1.083       .  S
C1358      C1359   1.407       .  A
C1358      H1363   1.083       .  S
C1359      C1360   1.405       .  A
C1360      H1364   1.083       .  S
C1365      C1366   1.404       .  A
C1365      C1370   1.405       .  A
C1365      H1371   1.083       .  S
C1366      C1367   1.405       .  A
C1367      C1368   1.385       .  A
C1367      H1372   1.084       .  S
C1368      H1373   1.084       .  S
C1375      C1376   1.405       .  A
C1375      C1380   1.391       .  A
C1375      H1381   1.084       .  S
C1376      C1377   1.400       .  A
C1377      C1378   1.398       .  A
C1377      H1382   1.083       .  S
C1378      C1379   1.409       .  A
C1378      H1383   1.083       .  S
C1379      C1380   1.399       .  A
C1380      H1384   1.083       .  S
C1385      C1386   1.404       .  A
C1385      C1390   1.395       .  A
C1385      H1391   1.083       .  S
C1386      C1387   1.410       .  A
C1387      C1388   1.408       .  A
C1387      H1392   1.083       .  S
C1388      C1389   1.405       .  A
C1388      H1393   1.083       .  S
C1389      C1390   1.404       .  A
C1390      H1394   1.084   1_455  S
C1395      C1396   1.412       .  A
C1395      C1400   1.411       .  A
C1395      H1401   1.083       .  S
C1396      C1397   1.404       .  A
C1397      C1398   1.394       .  A
C1397      H1402   1.083       .  S
C1398      C1399   1.408       .  A
C1398      H1403   1.083       .  S
C1399      C1400   1.406       .  A
C1400      H1404   1.083       .  S
C1405      C1406   1.404       .  A
C1405      C1410   1.403       .  A
C1405      H1411   1.083       .  S
C1406      C1407   1.404       .  A
C1407      C1408   1.400       .  A
C1407      H1412   1.084       .  S
C1408      C1409   1.403       .  A
C1408      H1413   1.084       .  S
C1409      C1410   1.404       .  A
C1410      H1414   1.083       .  S
C1415      C1416   1.406       .  A
C1415      C1420   1.414       .  A
C1415      H1421   1.083       .  S
C1416      C1417   1.406       .  A
C1417      C1418   1.393       .  A
C1417      H1422   1.084       .  S
C1418      C1419   1.404       .  A
C1418      H1423   1.084       .  S
C1419      C1420   1.413       .  A
C1420      H1424   1.083       .  S
C1425      C1426   1.403       .  A
C1425      C1430   1.397       .  A
C1425      H1431   1.083       .  S
C1426      C1427   1.407       .  A
C1427      C1428   1.402       .  A
C1427      H1432   1.083       .  S
C1428      C1429   1.402       .  A
C1428      H1433   1.083       .  S
C1429      C1430   1.405       .  A
C1430      H1434   1.084       .  S
C1435      C1436   1.405       .  A
C1435      C1440   1.390       .  A
C1435      H1441   1.084       .  S
C1436      C1437   1.405       .  A
C1437      C1438   1.411       .  A
C1437      H1442   1.083       .  S
C1438      C1439   1.412       .  A
C1438      H1443   1.083       .  S
C1439      C1440   1.402       .  A
C1440      H1444   1.084       .  S
C1445      C1446   1.410       .  A
C1445      C1450   1.402       .  A
C1445      H1451   1.083       .  S
C1446      C1447   1.403       .  A
C1447      C1448   1.393       .  A
C1447      H1452   1.083       .  S
C1448      C1449   1.407       .  A
C1448      H1453   1.083       .  S
C1449      C1450   1.404       .  A
C1450      H1454   1.083       .  S
C1455      C1456   1.408       .  A
C1456      C1457   1.404       .  A
C1457      C1458   1.403       .  A
C1457      H1462   1.083       .  S
C1458      H1463   1.083       .  S
C1459      C1460   1.404       .  A
C1460      H1464   1.084       .  S
C1465      C1466   1.407       .  A
C1465      C1470   1.384       .  A
C1465      H1471   1.083       .  S
C1466      C1467   1.406       .  A
C1467      C1468   1.403       .  A
C1467      H1472   1.083       .  S
C1468      C1469   1.405       .  A
C1468      H1473   1.083       .  S
C1469      C1470   1.398       .  A
C1470      H1474   1.084       .  S
C1475      C1476   1.404       .  A
C1475      H1481   1.084       .  S
C1476      C1477   1.399       .  A
C1477      H1482   1.083       .  S
C1478      C1479   1.408       .  A
C1478      H1483   1.083       .  S
C1479      C1480   1.398       .  A
C1480      H1484   1.084       .  S
C1485      C1486   1.408       .  A
C1485      C1490   1.406       .  A
C1485      H1491   1.083       .  S
C1486      C1487   1.405       .  A
C1487      C1488   1.396       .  A
C1487      H1492   1.083       .  S
C1488      C1489   1.404       .  A
C1488      H1493   1.083   1_455  S
C1489      C1490   1.407       .  A
C1490      H1494   1.083       .  S
C1495      C1496   1.398       .  A
C1495      C1500   1.384       .  A
C1495      H1501   1.084       .  S
C1496      C1497   1.407       .  A
C1497      C1498   1.404       .  A
C1497      H1502   1.083       .  S
C1498      C1499   1.405       .  A
C1498      H1503   1.083       .  S
C1499      C1500   1.406       .  A
C1500      H1504   1.083       .  S
C1505      C1510   1.393       .  A
C1507      C1508   1.396       .  A
C1507      H1512   1.083       .  S
C1508      C1509   1.408       .  A
C1508      H1513   1.083       .  S
C1509      C1510   1.399       .  A
C1510      H1514   1.083       .  S
C1515      C1516   1.405       .  A
C1515      C1520   1.395       .  A
C1515      H1521   1.083       .  S
C1516      C1517   1.407       .  A
C1517      C1518   1.400       .  A
C1517      H1522   1.083       .  S
C1518      C1519   1.401       .  A
C1518      H1523   1.083       .  S
C1519      C1520   1.402       .  A
C1520      H1524   1.084       .  S
C1525      C1526   1.405       .  A
C1525      C1530   1.396       .  A
C1525      H1531   1.083       .  S
C1526      C1527   1.408       .  A
C1527      C1528   1.409       .  A
C1527      H1532   1.083       .  S
C1528      C1529   1.408       .  A
C1528      H1533   1.083       .  S
C1529      C1530   1.405       .  A
C1530      H1534   1.083       .  S
C1535      C1536   1.408       .  A
C1535      C1540   1.395       .  A
C1535      H1541   1.083       .  S
C1536      C1537   1.405       .  A
C1537      C1538   1.401       .  A
C1537      H1542   1.083       .  S
C1538      C1539   1.409       .  A
C1538      H1543   1.083       .  S
C1539      C1540   1.403       .  A
C1540      H1544   1.083       .  S
C1545      C1546   1.405       .  A
C1545      C1550   1.404       .  A
C1545      H1551   1.084       .  S
C1546      C1547   1.404       .  A
C1547      C1548   1.402       .  A
C1547      H1552   1.083       .  S
C1548      C1549   1.404       .  A
C1548      H1553   1.084       .  S
C1549      C1550   1.405       .  A
C1550      H1554   1.083       .  S
C1555      C1556   1.403       .  A
C1555      C1560   1.391       .  A
C1555      H1561   1.084       .  S
C1556      C1557   1.412       .  A
C1557      C1558   1.413       .  A
C1557      H1562   1.083       .  S
C1558      C1559   1.407       .  A
C1558      H1563   1.083       .  S
C1559      C1560   1.405       .  A
C1560      H1564   1.084       .  S
C1565      C1566   1.404       .  A
C1565      H1571   1.084       .  S
C1567      C1568   1.394       .  A
C1568      C1569   1.409       .  A
C1568      H1573   1.083       .  S
C1569      C1570   1.399       .  A
C1570      H1574   1.083       .  S
C1575      C1576   1.405       .  A
C1575      C1580   1.383       .  A
C1575      H1581   1.084       .  S
C1576      C1577   1.403       .  A
C1577      C1578   1.400       .  A
C1577      H1582   1.083       .  S
C1578      C1579   1.405       .  A
C1578      H1583   1.083       .  S
C1579      C1580   1.398       .  A
C1580      H1584   1.084       .  S
C1585      C1586   1.405       .  A
C1585      C1590   1.402       .  A
C1585      H1591   1.083       .  S
C1586      C1587   1.405       .  A
C1587      C1588   1.393       .  A
C1587      H1592   1.083       .  S
C1588      C1589   1.404       .  A
C1588      H1593   1.083       .  S
C1589      C1590   1.409       .  A
C1590      H1594   1.083       .  S
C1595      C1596   1.401       .  A
C1595      C1600   1.394       .  A
C1595      H1601   1.084       .  S
C1596      C1597   1.405       .  A
C1597      C1598   1.400       .  A
C1597      H1602   1.083       .  S
C1598      C1599   1.404       .  A
C1598      H1603   1.083       .  S
C1599      C1600   1.404       .  A
C1600      H1604   1.084       .  S
C1605      C1606   1.405       .  A
C1605      C1610   1.409       .  A
C1605      H1611   1.083       .  S
C1606      C1607   1.407       .  A
C1607      C1608   1.392       .  A
C1607      H1612   1.084       .  S
C1608      C1609   1.403       .  A
C1608      H1613   1.083       .  S
C1609      C1610   1.413       .  A
C1610      H1614   1.083       .  S
C1615      C1616   1.402       .  A
C1615      C1620   1.397       .  A
C1615      H1621   1.083       .  S
C1616      C1617   1.403       .  A
C1617      C1618   1.399       .  A
C1617      H1622   1.083       .  S
C1618      C1619   1.406       .  A
C1618      H1623   1.083       .  S
C1619      C1620   1.405       .  A
C1620      H1624   1.083       .  S
C1625      C1630   1.401       .  A
C1625      H1631   1.083       .  S
C1626      C1627   1.404       .  A
C1627      H1632   1.084       .  S
C1628      C1629   1.406       .  A
C1629      C1630   1.404       .  A
C1630      H1634   1.084       .  S
C1635      C1636   1.406       .  A
C1635      C1640   1.401       .  A
C1635      H1641   1.083       .  S
C1636      C1637   1.406       .  A
C1637      C1638   1.395       .  A
C1637      H1642   1.083       .  S
C1638      C1639   1.405       .  A
C1638      H1643   1.083       .  S
C1639      C1640   1.408       .  A
C1640      H1644   1.083       .  S
C1645      C1646   1.403       .  A
C1645      C1650   1.383       .  A
C1645      H1651   1.084       .  S
C1646      C1647   1.402       .  A
C1647      C1648   1.403       .  A
C1647      H1652   1.083       .  S
C1648      C1649   1.408       .  A
C1648      H1653   1.083       .  S
C1649      C1650   1.401       .  A
C1650      H1654   1.083       .  S
C1655      C1656   1.399       .  A
C1655      H1661   1.083       .  S
C1656      C1657   1.409       .  A
C1657      C1658   1.397       .  A
C1657      H1662   1.083       .  S
C1658      H1663   1.083       .  S
C1659      C1660   1.403       .  A
C1660      H1664   1.084       .  S
