geometry optimzed in LAMMPS
_audit_creation_date              2020-12-01 
_audit_creation_method            'lammps2cif' 
_symmetry_space_group_name_H-M    'P1' 
_symmetry_Int_Tables_number       1 
_symmetry_cell_setting            triclinic 
loop_ 
_symmetry_equiv_pos_as_xyz 
  x,y,z 
_cell_length_a                    51.20210844 
_cell_length_b                    51.4024469018283 
_cell_length_c                    28.52899003468576 
_cell_angle_alpha                 89.93990187457246 
_cell_angle_beta                  90.26293582350293 
_cell_angle_gamma                 90.45745999728815 
loop_ 
_atom_site_label 
_atom_site_type_symbol 
_atom_site_fract_x 
_atom_site_fract_y 
_atom_site_fract_z 
_atom_site_charge 
O1          O  0.39019048  0.86607574  0.90790911    -0.81600
C2          C  0.42048130  0.87832306  0.73018822     0.97700
O3          O  0.40687764  0.88998867  0.76015242    -0.70800
O4          O  0.37445755  0.89144373  0.82958510    -0.74300
Al5        Al  0.41159558  0.89367115  0.82395510     1.49000
C6          C  0.35916165  0.87282561  0.82074125     0.93000
O7          O  0.39800559  0.81050941  0.82343379    -0.80600
O8          O  0.45799413  0.82657056  0.85571067    -0.74100
Al9        Al  0.39668261  0.84020792  0.86138229     1.90100
O10         O  0.42962523  0.81711204  0.77414490    -0.73200
O11         O  0.47178950  0.87321592  0.81934415    -0.73000
O12         O  0.43953439  0.86382036  0.74159426    -0.78700
O13         O  0.44557205  0.90603086  0.81482161    -0.76900
O14         O  0.41893005  0.85987177  0.82886547    -1.13000
O15         O  0.41547861  0.89939121  0.88938076    -0.72200
C16         C  0.40079825  0.88768969  0.91819612     0.98500
C17         C  0.41067019  0.80368999  0.78820022     0.94900
Al18       Al  0.44722285  0.84639555  0.80055505     1.55600
O19         O  0.36713532  0.84983492  0.82415676    -0.76900
C20         C  0.46826317  0.89729210  0.81481326     0.99000
C21         C  0.44652346  0.82169816  0.89427681     0.93900
O22         O  0.42309665  0.82798599  0.90100744    -0.82200
O23         O  0.41241693  0.65308560  0.11247386    -0.81600
C24         C  0.43876258  0.63924338  0.30187865     0.97700
O25         O  0.43582989  0.62087181  0.27268780    -0.70800
O26         O  0.39099255  0.62181522  0.22836682    -0.74300
Al27       Al  0.42586150  0.62077384  0.20738308     1.49000
C28         C  0.37214500  0.63377054  0.21037381     0.93000
O29         O  0.39678434  0.69513101  0.21688607    -0.80600
O30         O  0.46886198  0.68487820  0.16853551    -0.74100
Al31       Al  0.40590474  0.67294925  0.16643464     1.90100
O32         O  0.43695938  0.70452251  0.23760033    -0.73200
O33         O  0.48043544  0.64474097  0.22649148    -0.73000
O34         O  0.44395988  0.66216305  0.28840194    -0.78700
O35         O  0.46031818  0.61408138  0.18738738    -0.76900
O36         O  0.42899587  0.65527589  0.20047400    -1.13000
O37         O  0.41482599  0.61407795  0.14384407    -0.72200
C38         C  0.41250115  0.62870503  0.10845324     0.98500
C39         C  0.41294660  0.70997518  0.23710898     0.94900
Al40       Al  0.45540917  0.67253542  0.22778591     1.55600
O41         O  0.37597696  0.65243370  0.18256002    -0.76900
C42         C  0.48053068  0.62261321  0.20751971     0.99000
C43         C  0.45522255  0.69830549  0.14038863     0.93900
O44         O  0.43057233  0.69760296  0.14206652    -0.82200
O45         O  0.31927961  0.56134433  0.61335419    -0.81600
C46         C  0.35753286  0.57326127  0.79757879     0.97700
O47         O  0.34197881  0.55515053  0.78507324    -0.70800
O48         O  0.29782031  0.57041312  0.74464754    -0.74300
Al49       Al  0.32520956  0.54753473  0.72495180     1.49000
C50         C  0.28347184  0.58307836  0.71695664     0.93000
O51         O  0.33120694  0.62260532  0.68402071    -0.80600
O52         O  0.38583730  0.57254968  0.64132958    -0.74100
Al53       Al  0.32577663  0.59103717  0.65014026     1.90100
O54         O  0.37336278  0.61636735  0.69316531    -0.73200
O55         O  0.38543005  0.54486363  0.72057540    -0.73000
O56         O  0.36908762  0.58713371  0.76757930    -0.78700
O57         O  0.35038317  0.52079513  0.71103036    -0.76900
O58         O  0.34221425  0.57241810  0.69345188    -1.13000
O59         O  0.30490625  0.53582127  0.67003861    -0.72200
C60         C  0.30591008  0.54201625  0.62675674     0.98500
C61         C  0.35388491  0.63138669  0.69236364     0.94900
Al62       Al  0.37564547  0.57945540  0.70472419     1.55600
O63         O  0.29161347  0.58903158  0.67679146    -0.76900
C64         C  0.37460089  0.52276226  0.71938026     0.99000
C65         C  0.37747314  0.58664774  0.60831843     0.93900
O66         O  0.35561856  0.59767524  0.61155587    -0.82200
O67         O  0.18000601  0.57034209  0.38506802    -0.81600
C68         C  0.11849692  0.56741999  0.22716306     0.97700
O69         O  0.14184101  0.56178249  0.23729241    -0.70800
O70         O  0.18560097  0.56688701  0.28697783    -0.74300
Al71       Al  0.15317795  0.54853164  0.29709218     1.49000
C72         C  0.19231059  0.59050338  0.29138807     0.93000
O73         O  0.13564221  0.62700703  0.34960560    -0.80600
O74         O  0.09737346  0.59176575  0.38363374    -0.74100
Al75       Al  0.15585525  0.59602423  0.36372851     1.90100
O76         O  0.10780546  0.61260344  0.29694608    -0.73200
O77         O  0.09556879  0.54518596  0.34434377    -0.73000
O78         O  0.10120740  0.56765285  0.25837518    -0.78700
O79         O  0.12364461  0.52443143  0.30035360    -0.76900
O80         O  0.13755185  0.57434543  0.32772773    -1.13000
O81         O  0.16696829  0.53326168  0.35371771    -0.72200
C82         C  0.18134502  0.54585713  0.38221437     0.98500
C83         C  0.11961300  0.63117179  0.31657155     0.94900
Al84       Al  0.10336412  0.57887802  0.32153786     1.55600
O85         O  0.17829694  0.60612925  0.31400355    -0.76900
C86         C  0.10232054  0.52487849  0.32288539     0.99000
C87         C  0.11132163  0.59112096  0.42013380     0.93900
O88         O  0.13564035  0.58798666  0.41752312    -0.82200
O89         O  0.06895224  0.87073334  0.10424510    -0.81600
C90         C  0.05364727  0.87840051  0.29171910     0.97700
O91         O  0.06723217  0.88837175  0.25954209    -0.70800
O92         O  0.09216168  0.89323817  0.17994098    -0.74300
Al93       Al  0.05600047  0.89390254  0.19788347     1.47400
C94         C  0.10813444  0.87472763  0.18094952     0.93000
O95         O  0.06845921  0.81071790  0.18286704    -0.80600
O96         O  0.01272719  0.82102152  0.17745590    -0.74100
Al97       Al  0.06702110  0.84268095  0.14850681     1.90100
O98         O  0.04911870  0.81928560  0.24932536    -0.73200
O99         O  0.99771743  0.86845273  0.20970142    -0.73000
O100        O  0.03375498  0.86435654  0.28269213    -0.78700
O101        O  0.02215900  0.90322098  0.21834305    -0.76900
O102        O  0.04914389  0.86026261  0.19077562    -1.13000
O103        O  0.04543563  0.90183799  0.13588591    -0.72200
C104        C  0.05668045  0.89194204  0.10099923     0.98500
C105        C  0.06313025  0.80471895  0.22465430     0.94900
Al106      Al  0.02518351  0.84455951  0.22657212     1.55600
O107        O  0.10007419  0.85155864  0.17678726    -0.76900
C108        C  0.99993920  0.89250365  0.21835919     0.99000
C109        C  0.01793273  0.81923438  0.13407947     0.93900
O110        O  0.03647287  0.83209832  0.11642291    -0.82200
O111        O  0.06612453  0.65022693  0.91560598    -0.81600
C112        C  0.04381323  0.64250203  0.72320799     0.97700
O113        O  0.04525081  0.62397066  0.75197049    -0.70800
O114        O  0.09055063  0.62709896  0.79291054    -0.74300
Al115      Al  0.05590025  0.62261213  0.81536594     1.49000
C116        C  0.10910752  0.63753088  0.81531531     0.93000
O117        O  0.08419276  0.69738245  0.81898750    -0.80600
O118        O  0.01121265  0.68508962  0.85651262    -0.74100
Al119      Al  0.07389632  0.67273860  0.86515177     1.90100
O120        O  0.04496842  0.70608786  0.79241499    -0.73200
O121        O  0.00138494  0.64554453  0.79755560    -0.73000
O122        O  0.03857330  0.66525090  0.73687588    -0.78700
O123        O  0.02144965  0.61413136  0.83509186    -0.76900
O124        O  0.05186911  0.65645144  0.82648485    -1.13000
O125        O  0.06822334  0.61349684  0.87695829    -0.72200
C126        C  0.06913882  0.62595342  0.91500281     0.98500
C127        C  0.06879096  0.71210232  0.79711161     0.94900
Al128      Al  0.02610836  0.67398442  0.79830242     1.55600
O129        O  0.10454832  0.65315117  0.84841725    -0.76900
C130        C  0.00115236  0.62310677  0.81573304     0.99000
C131        C  0.02378181  0.69689797  0.88845473     0.93900
O132        O  0.04838029  0.69562976  0.89086078    -0.82200
O133        O  0.30995544  0.94722582  0.40974773    -0.81600
C134        C  0.35045798  0.94127655  0.22862891     0.97700
O135        O  0.33666449  0.96007332  0.24276893    -0.70800
O136        O  0.29171585  0.94632975  0.27993694    -0.74300
Al137      Al  0.32063788  0.96682999  0.30266108     1.49000
C138        C  0.27868265  0.92898116  0.30078052     0.93000
O139        O  0.32646367  0.88837680  0.33574570    -0.80600
O140        O  0.38009178  0.93848951  0.38350879    -0.74100
Al141      Al  0.31915910  0.91937735  0.37056423     1.90100
O142        O  0.36820911  0.89636504  0.32963136    -0.73200
O143        O  0.38072394  0.96735831  0.30604796    -0.73000
O144        O  0.36258754  0.92661917  0.25655916    -0.78700
O145        O  0.34730971  0.99224178  0.31922014    -0.76900
O146        O  0.33644272  0.94001245  0.33116621    -1.13000
O147        O  0.30140945  0.97776321  0.35789879    -0.72200
C148        C  0.30040541  0.96898577  0.39947276     0.98500
C149        C  0.34935212  0.88053261  0.32855443     0.94900
Al150      Al  0.36997820  0.93301451  0.31986505     1.55600
O151        O  0.28667587  0.91978814  0.33895432    -0.76900
C152        C  0.37122327  0.98970474  0.30965723     0.99000
C153        C  0.36964159  0.92585569  0.41663192     0.93900
O154        O  0.34781387  0.91457166  0.41150004    -0.82200
O155        O  0.16250518  0.95152526  0.62197231    -0.81600
C156        C  0.10966812  0.94716925  0.79381247     0.97700
O157        O  0.12670388  0.96435130  0.78336065    -0.70800
O158        O  0.17236377  0.94929534  0.75285047    -0.74300
Al159      Al  0.14652580  0.97121444  0.72680175     1.49000
C160        C  0.18529696  0.93153581  0.73397899     0.93000
O161        O  0.13559280  0.89423432  0.69018595    -0.80600
O162        O  0.09007023  0.94873839  0.63408052    -0.74100
Al163      Al  0.14788229  0.92436984  0.65792214     1.90100
O164        O  0.09446798  0.90486927  0.68771761    -0.73200
O165        O  0.08706849  0.97642881  0.71380423    -0.73000
O166        O  0.09812897  0.93385659  0.76275774    -0.78700
O167        O  0.12332002  0.99844329  0.70698187    -0.76900
O168        O  0.13023557  0.94598223  0.69449750    -1.13000
O169        O  0.16959346  0.98145283  0.67589282    -0.72200
C170        C  0.17306976  0.97253954  0.63493611     0.98500
C171        C  0.11187049  0.88803232  0.69386636     0.94900
Al172      Al  0.09554459  0.94156402  0.69895634     1.55600
O173        O  0.17819113  0.92181757  0.69564837    -0.76900
C174        C  0.09910276  0.99779316  0.71440392     0.99000
C175        C  0.10106547  0.93546244  0.60259660     0.93900
O176        O  0.12139341  0.92245106  0.61133708    -0.82200
O177        O  0.63075782  0.41613189  0.42004795    -0.81600
C178        C  0.61828540  0.44058768  0.23640586     0.97700
O179        O  0.60896868  0.42493249  0.26628808    -0.70800
O180        O  0.60723205  0.39497177  0.34091556    -0.74300
Al181      Al  0.60377461  0.43148057  0.32977406     1.49000
C182        C  0.62661590  0.38030414  0.33693076     0.93000
O183        O  0.68748287  0.42258951  0.33616264    -0.80600
O184        O  0.66980557  0.48180816  0.35953876    -0.74100
Al185      Al  0.65721244  0.42123934  0.37384917     1.90100
O186        O  0.67924038  0.45143329  0.28189514    -0.73200
O187        O  0.62254106  0.49206516  0.32490537    -0.73000
O188        O  0.63223254  0.46006731  0.24841813    -0.78700
O189        O  0.59046124  0.46464288  0.31545105    -0.76900
O190        O  0.63720825  0.44079418  0.33684907    -1.13000
O191        O  0.59640617  0.43748667  0.39352276    -0.72200
C192        C  0.60879024  0.42664562  0.42644380     0.98500
C193        C  0.69351905  0.43399775  0.29876464     0.94900
Al194      Al  0.64992593  0.46884748  0.30656391     1.55600
O195        O  0.64927362  0.38956046  0.34138150    -0.76900
C196        C  0.59875590  0.48763353  0.31665175     0.99000
C197        C  0.67410226  0.47265416  0.40005568     0.93900
O198        O  0.66794545  0.44965797  0.41047988    -0.82200
O199        O  0.84300624  0.41906211  0.61428684    -0.81600
C200        C  0.85662470  0.44376923  0.79778463     0.97700
O201        O  0.86618303  0.42870661  0.76750526    -0.70800
O202        O  0.86641075  0.39908711  0.69276603    -0.74300
Al203      Al  0.87002047  0.43547988  0.70328955     1.49000
C204        C  0.84707243  0.38402319  0.69685232     0.93000
O205        O  0.78588983  0.42535682  0.69518487    -0.80600
O206        O  0.80196735  0.48315870  0.67758815    -0.74100
Al207      Al  0.81657792  0.42430381  0.65945939     1.90100
O208        O  0.79461186  0.45121654  0.75395378    -0.73200
O209        O  0.84983170  0.49556755  0.71152445    -0.73000
O210        O  0.84146815  0.46216582  0.78638294    -0.78700
O211        O  0.88247988  0.46884215  0.71642385    -0.76900
O212        O  0.83638944  0.44376523  0.69737531    -1.13000
O213        O  0.87695606  0.44177039  0.63881439    -0.72200
C214        C  0.86483414  0.42984448  0.60666030     0.98500
C215        C  0.77993361  0.43490032  0.73404832     0.94900
Al216      Al  0.82307227  0.47066603  0.72933682     1.55600
O217        O  0.82427254  0.39265011  0.69206989    -0.76900
C218        C  0.87394492  0.49157780  0.71701187     0.99000
C219        C  0.79822765  0.47492972  0.63619003     0.93900
O220        O  0.80643746  0.45308053  0.62319863    -0.82200
O221        O  0.93344935  0.33636551  0.11936183    -0.81600
C222        C  0.91777562  0.38067294  0.29559485     0.97700
O223        O  0.93768602  0.36719083  0.28591337    -0.70800
O224        O  0.92404736  0.32169228  0.25015160    -0.74300
Al225      Al  0.94659180  0.34893319  0.22884196     1.49000
C226        C  0.90818159  0.30808644  0.22656261     0.93000
O227        O  0.87100376  0.35534906  0.18047154    -0.80600
O228        O  0.92479657  0.40716441  0.14138624    -0.74100
Al229      Al  0.90348773  0.34700969  0.15196898     1.90100
O230        O  0.87865565  0.39701972  0.18543234    -0.73200
O231        O  0.94872553  0.40822940  0.22427415    -0.73000
O232        O  0.90415930  0.39133014  0.26424041    -0.78700
O233        O  0.97315640  0.37418457  0.21315625    -0.76900
O234        O  0.92190912  0.36447245  0.19438555    -1.13000
O235        O  0.95944509  0.32724494  0.17861466    -0.72200
C236        C  0.95336468  0.32526559  0.13567539     0.98500
C237        C  0.86289848  0.37811619  0.18664646     0.94900
Al238      Al  0.91486395  0.39806746  0.20309216     1.55600
O239        O  0.90126325  0.31512523  0.18608791    -0.76900
C240        C  0.97095783  0.39799118  0.22315355     0.99000
C241        C  0.91395241  0.39704869  0.10591282     0.93900
O242        O  0.90199324  0.37541395  0.10831709    -0.82200
O243        O  0.92841740  0.20268535  0.89185629    -0.81600
C244        C  0.93562789  0.14413667  0.73378624     0.97700
O245        O  0.93986186  0.16735441  0.74623798    -0.70800
O246        O  0.93346136  0.20957069  0.79637509    -0.74300
Al247      Al  0.95227642  0.17783012  0.80563117     1.49000
C248        C  0.90937008  0.21459803  0.79657362     0.93000
O249        O  0.87337355  0.15675600  0.85126321    -0.80600
O250        O  0.91388916  0.11939329  0.89222321    -0.74100
Al251      Al  0.90332338  0.17787458  0.86783346     1.90100
O252        O  0.88948462  0.12605574  0.80717517    -0.73200
O253        O  0.95902120  0.12072640  0.84947233    -0.73000
O254        O  0.93397449  0.12587223  0.76355164    -0.78700
O255        O  0.97774283  0.15014061  0.80578105    -0.76900
O256        O  0.92650179  0.16043932  0.83417501    -1.13000
O257        O  0.96642409  0.19022153  0.86373102    -0.72200
C258        C  0.95317290  0.20363364  0.89211682     0.98500
C259        C  0.87017483  0.13792716  0.82335177     0.94900
Al260      Al  0.92431519  0.12595912  0.82865434     1.55600
O261        O  0.89355000  0.19970826  0.81718503    -0.76900
C262        C  0.97864899  0.12867662  0.82720610     0.99000
C263        C  0.91174251  0.13434418  0.92704600     0.93900
O264        O  0.91035266  0.15856490  0.92193816    -0.82200
O265        O  0.63179523  0.08565211  0.61408375    -0.81600
C266        C  0.62118163  0.06055688  0.80484587     0.97700
O267        O  0.60282176  0.06234064  0.77543223    -0.70800
O268        O  0.60563839  0.10752673  0.73619399    -0.74300
Al269      Al  0.60215488  0.07346790  0.71196332     1.49000
C270        C  0.61629591  0.12659554  0.71617824     0.93000
O271        O  0.67630431  0.10335822  0.71565852    -0.80600
O272        O  0.66599238  0.03100112  0.67057200    -0.74100
Al273      Al  0.65296069  0.09334657  0.66663230     1.90100
O274        O  0.68625987  0.06379530  0.73799854    -0.73200
O275        O  0.62565204  0.01927263  0.72836068    -0.73000
O276        O  0.64423997  0.05580801  0.79159013    -0.78700
O277        O  0.59448245  0.03938480  0.69027563    -0.76900
O278        O  0.63634071  0.07031865  0.70260286    -1.13000
O279        O  0.59395422  0.08586737  0.64998309    -0.72200
C280        C  0.60727360  0.08684596  0.61288011     0.98500
C281        C  0.69175142  0.08780925  0.73553669     0.94900
Al282      Al  0.65401398  0.04449590  0.72978132     1.55600
O283        O  0.63218823  0.12314239  0.68312299    -0.76900
C284        C  0.60316704  0.01914034  0.70975265     0.99000
C285        C  0.67877422  0.04461361  0.64134540     0.93900
O286        O  0.67730350  0.06912127  0.64151462    -0.82200
O287        O  0.85531677  0.10112803  0.42054634    -0.81600
C288        C  0.86721076  0.07377062  0.23776564     0.97700
O289        O  0.87786219  0.08755193  0.26905177    -0.70800
O290        O  0.87926843  0.11793097  0.34210968    -0.74300
Al291      Al  0.88017563  0.08080722  0.33321266     1.49000
C292        C  0.86087269  0.13398100  0.33740327     0.93000
O293        O  0.79608021  0.09482616  0.34158402    -0.80600
O294        O  0.80617766  0.04026998  0.35434172    -0.74100
Al295      Al  0.82794001  0.09553727  0.37576766     1.90100
O296        O  0.80497131  0.07369422  0.27737429    -0.73200
O297        O  0.85315386  0.02284113  0.32378280    -0.73000
O298        O  0.85054573  0.05630822  0.24793169    -0.78700
O299        O  0.88917487  0.04596264  0.32248525    -0.76900
O300        O  0.84601670  0.07528102  0.33752470    -1.13000
O301        O  0.88592444  0.07439599  0.39806127    -0.72200
C302        C  0.87627358  0.08912977  0.42850752     0.98500
C303        C  0.78992568  0.08788670  0.30076980     0.94900
Al304      Al  0.83006038  0.05033868  0.30387301     1.55600
O305        O  0.83737466  0.12654682  0.34174946    -0.76900
C306        C  0.87780732  0.02421729  0.32253475     0.99000
C307        C  0.80437169  0.04729446  0.39700101     0.93900
O308        O  0.81705745  0.06673715  0.41228979    -0.82200
O309        O  0.54215510  0.32977304  0.91168183    -0.81600
C310        C  0.55255879  0.37807859  0.73613416     0.97700
O311        O  0.53408716  0.36264367  0.74663458    -0.70800
O312        O  0.54960704  0.31724053  0.77790404    -0.74300
Al313      Al  0.52678296  0.34316908  0.80279764     1.49000
C314        C  0.56428123  0.30251802  0.80126303     0.93000
O315        O  0.60296811  0.34866307  0.84465884    -0.80600
O316        O  0.55207328  0.39952103  0.89453000    -0.74100
Al317      Al  0.57136862  0.34014291  0.87653036     1.90100
O318        O  0.59574534  0.39055251  0.84254829    -0.73200
O319        O  0.52459844  0.40250726  0.81702413    -0.73000
O320        O  0.56670933  0.38851722  0.76721333    -0.78700
O321        O  0.49981384  0.36768107  0.82051330    -0.76900
O322        O  0.55204717  0.35853000  0.83683214    -1.13000
O323        O  0.51545486  0.31986125  0.85348643    -0.72200
C324        C  0.52254907  0.31755451  0.89612547     0.98500
C325        C  0.61114677  0.37165962  0.83930370     0.94900
Al326      Al  0.55903073  0.39238091  0.83073679     1.55600
O327        O  0.57102991  0.30853663  0.84226742    -0.76900
C328        C  0.50227283  0.39218539  0.81713114     0.99000
C329        C  0.56397794  0.38836345  0.92754391     0.93900
O330        O  0.57585951  0.36725883  0.92123528    -0.82200
O331        O  0.55061459  0.19303649  0.14249378    -0.81600
C332        C  0.54441728  0.13545641  0.30518588     0.97700
O333        O  0.53913112  0.15835291  0.29229961    -0.70800
O334        O  0.54567889  0.20052589  0.24044367    -0.74300
Al335      Al  0.52741273  0.16815618  0.23104504     1.49000
C336        C  0.56944845  0.20724426  0.23794428     0.93000
O337        O  0.60705700  0.15023101  0.18345371    -0.80600
O338        O  0.57102479  0.11073956  0.14946620    -0.74100
Al339      Al  0.57613475  0.16974976  0.16708153     1.90100
O340        O  0.59263738  0.12269039  0.23602428    -0.73200
O341        O  0.52447569  0.10920780  0.19029445    -0.73000
O342        O  0.54762581  0.11763361  0.27546036    -0.78700
O343        O  0.50319740  0.13890487  0.22934922    -0.76900
O344        O  0.55393528  0.15195876  0.20321376    -1.13000
O345        O  0.51308342  0.18030168  0.17244937    -0.72200
C346        C  0.52597690  0.19364499  0.14301723     0.98500
C347        C  0.61126924  0.13434253  0.21639854     0.94900
Al348      Al  0.55852181  0.11799151  0.21186187     1.55600
O349        O  0.58555029  0.19340528  0.21595916    -0.76900
C350        C  0.50397168  0.11662177  0.21057030     0.99000
C351        C  0.57119599  0.12426250  0.11245267     0.93900
O352        O  0.56897524  0.14860341  0.11418875    -0.82200
C353        C  0.50676349  0.25147943  0.06752867     0.16100
C354        C  0.50618047  0.27679314  0.04905721    -0.32900
C355        C  0.50594457  0.27962914  0.00008656     0.20500
C356        C  0.50543716  0.25821654  0.97063001     0.02700
C357        C  0.50591900  0.23281785  0.98914778    -0.22700
C358        C  0.50700213  0.22998519  0.03823885     0.11900
S359        S  0.51073945  0.24425724  0.12561918    -0.06300
C360        C  0.51316774  0.21192431  0.11065852    -0.09800
C361        C  0.51086827  0.20721992  0.06283441    -0.26400
S362        S  0.50774285  0.26596397  0.91228405    -0.03600
C363        C  0.51030761  0.29832488  0.92781846    -0.17000
C364        C  0.50880268  0.30256888  0.97581607    -0.15000
H365        H  0.50730880  0.29358288  0.07185494     0.20300
H366        H  0.50682200  0.21607083  0.96628218     0.16400
H367        H  0.51393377  0.18845426  0.04666291     0.18900
H368        H  0.51190243  0.32130419  0.99234015     0.12200
C369        C  0.72604494  0.10763575  0.23913818     0.16100
C370        C  0.70593428  0.11440209  0.20785091    -0.32900
C371        C  0.68126710  0.11988979  0.22678563     0.20500
C372        C  0.67675642  0.11829161  0.27462012     0.02700
C373        C  0.69693855  0.11213185  0.30587570    -0.22700
C374        C  0.72159455  0.10703194  0.28702195     0.11900
S375        S  0.75718916  0.09927609  0.22354489    -0.06300
C376        C  0.76427701  0.09569154  0.28227905    -0.09800
C377        C  0.74347746  0.10053052  0.31186496    -0.26400
S378        S  0.64519282  0.12377566  0.29054305    -0.03600
C379        C  0.63804692  0.12903939  0.23230630    -0.17000
C380        C  0.65910900  0.12650211  0.20229312    -0.15000
H381        H  0.70927993  0.11510212  0.17045321     0.20300
H382        H  0.69350663  0.11106841  0.34323357     0.16400
H383        H  0.74422517  0.09886618  0.34969014     0.18900
H384        H  0.65803557  0.12854343  0.16457074     0.12200
C385        C  0.59875613  0.19121056  0.77397200     0.16100
C386        C  0.59249436  0.21108634  0.80528426    -0.32900
C387        C  0.58636535  0.23547180  0.78652502     0.20500
C388        C  0.58617938  0.24001809  0.73861623     0.02700
C389        C  0.59315071  0.22022796  0.70716448    -0.22700
C390        C  0.59956876  0.19577506  0.72605162     0.11900
S391        S  0.60528889  0.15996157  0.79006957    -0.06300
C392        C  0.60997994  0.15299909  0.73179504    -0.09800
C393        C  0.60645122  0.17387128  0.70158809    -0.26400
S394        S  0.57637443  0.27076073  0.72338414    -0.03600
C395        C  0.57309172  0.27744589  0.78229706    -0.17000
C396        C  0.57928417  0.25688338  0.81160203    -0.15000
H397        H  0.59201592  0.20758194  0.84272850     0.20300
H398        H  0.59321391  0.22361338  0.66968741     0.16400
H399        H  0.60810113  0.17283836  0.66380046     0.18900
H400        H  0.57803491  0.25739679  0.84950091     0.12200
C401        C  0.73811064  0.02908436  0.56736822     0.16100
C402        C  0.76354670  0.03033559  0.54952841    -0.32900
C403        C  0.76665595  0.02949607  0.50075744     0.20500
C404        C  0.74546284  0.02651096  0.47081328     0.02700
C405        C  0.71986887  0.02497715  0.48875175    -0.22700
C406        C  0.71668084  0.02682275  0.53773702     0.11900
S407        S  0.73047890  0.03371815  0.62490699    -0.06300
C408        C  0.69796706  0.03294797  0.60952300    -0.09800
C409        C  0.69347703  0.02923286  0.56181370    -0.26400
S410        S  0.75347286  0.02864448  0.41253771    -0.03600
C411        C  0.78545198  0.03472725  0.42900140    -0.17000
C412        C  0.78949580  0.03416337  0.47709352    -0.15000
H413        H  0.78011396  0.03342588  0.57257688     0.20300
H414        H  0.70315804  0.02392181  0.46547860     0.16400
H415        H  0.67445156  0.03028220  0.54526300     0.18900
H416        H  0.80784784  0.03905454  0.49402157     0.12200
C417        C  0.61288051  0.07281829  0.93730512     0.16100
C418        C  0.61572432  0.07610413  0.98596328    -0.32900
C419        C  0.59613035  0.08981116  0.00970997     0.20500
C420        C  0.57472899  0.09986357  0.98604719     0.02700
C421        C  0.57151080  0.09591399  0.93782455    -0.22700
C422        C  0.59103646  0.08223463  0.91422125     0.11900
S423        S  0.63537972  0.05874211  0.90099014    -0.06300
C424        C  0.61485335  0.06535896  0.85451100    -0.09800
C425        C  0.59191013  0.07771495  0.86708364    -0.26400
S426        S  0.55452050  0.11818989  0.01991587    -0.03600
C427        C  0.57474184  0.11177737  0.06673226    -0.17000
C428        C  0.59597599  0.09624855  0.05642764    -0.15000
H429        H  0.63278988  0.06896819  0.00426654     0.20300
H430        H  0.55490729  0.10385875  0.91921767     0.16400
H431        H  0.57701487  0.08404131  0.84261202     0.18900
H432        H  0.61113928  0.09110700  0.08126022     0.12200
C433        C  0.58123952  0.08914363  0.48783824     0.16100
C434        C  0.57684016  0.08544771  0.43995236    -0.32900
C435        C  0.56349874  0.10496197  0.41567797     0.20500
C436        C  0.55459917  0.12714722  0.43787200     0.02700
C437        C  0.55818804  0.13043360  0.48632181    -0.22700
C438        C  0.57179640  0.11094625  0.51065039     0.11900
S439        S  0.59975480  0.06915745  0.52195495    -0.06300
C440        C  0.59425617  0.09004393  0.56768098    -0.09800
C441        C  0.57891272  0.11133285  0.55701867    -0.26400
S442        S  0.54135879  0.14971740  0.40061551    -0.03600
C443        C  0.54796555  0.12887505  0.35498446    -0.17000
C444        C  0.55937523  0.10567223  0.36846860    -0.15000
H445        H  0.58445970  0.06862416  0.42198178     0.20300
H446        H  0.55162147  0.14782225  0.50387914     0.16400
H447        H  0.57441847  0.12684692  0.58123605     0.18900
H448        H  0.56561063  0.09060428  0.34459778     0.12200
C449        C  0.90702340  0.11935808  0.05703010     0.16100
C450        C  0.90513942  0.12161626  0.10553750    -0.32900
C451        C  0.89322105  0.10118249  0.12973793     0.20500
C452        C  0.88389359  0.07910975  0.10710621     0.02700
C453        C  0.88648013  0.07648001  0.05835060    -0.22700
C454        C  0.89809136  0.09726835  0.03382875     0.11900
S455        S  0.91798917  0.14359333  0.02165102    -0.06300
C456        C  0.91041654  0.12399611  0.97470880    -0.09800
C457        C  0.90043679  0.09965549  0.98611324    -0.26400
S458        S  0.86848765  0.05737947  0.14343335    -0.03600
C459        C  0.87483588  0.07850835  0.18903657    -0.17000
C460        C  0.88830576  0.10083824  0.17651754    -0.15000
H461        H  0.91173702  0.13903566  0.12346817     0.20300
H462        H  0.87894230  0.05951196  0.04022078     0.16400
H463        H  0.89379792  0.08527969  0.96094773     0.18900
H464        H  0.89374985  0.11637177  0.20035414     0.12200
C465        C  0.91031590  0.09500684  0.54708187     0.16100
C466        C  0.92041031  0.09109967  0.59220422    -0.32900
C467        C  0.92414679  0.11312842  0.62047979     0.20500
C468        C  0.91897062  0.13800009  0.60411623     0.02700
C469        C  0.90904875  0.14191595  0.55903544    -0.22700
C470        C  0.90442963  0.11986706  0.53147810     0.11900
S471        S  0.90242572  0.07078482  0.50831900    -0.06300
C472        C  0.89020154  0.09450839  0.47206347    -0.09800
C473        C  0.89275753  0.11964526  0.48854786    -0.26400
S474        S  0.92362745  0.16207455  0.64433228    -0.03600
C475        C  0.93179170  0.13829569  0.68409331    -0.17000
C476        C  0.93151111  0.11318821  0.66655648    -0.15000
H477        H  0.92425141  0.07172165  0.60529578     0.20300
H478        H  0.90416933  0.16120755  0.54664635     0.16400
H479        H  0.88586530  0.13680922  0.47036089     0.18900
H480        H  0.93552084  0.09586568  0.68690164     0.12200
C481        C  0.80592475  0.10472384  0.78593295     0.16100
C482        C  0.78645889  0.08707691  0.77160508    -0.32900
C483        C  0.76077375  0.09619384  0.76829174     0.20500
C484        C  0.75476266  0.12188926  0.77789491     0.02700
C485        C  0.77421975  0.13948688  0.79289120    -0.22700
C486        C  0.79989134  0.13023141  0.79706610     0.11900
S487        S  0.83822935  0.09741952  0.79141576    -0.06300
C488        C  0.84374909  0.12885997  0.81012395    -0.09800
C489        C  0.82154235  0.14416513  0.81152114    -0.26400
S490        S  0.72261346  0.12939875  0.76890207    -0.03600
C491        C  0.71713833  0.09742184  0.75327377    -0.17000
C492        C  0.73923255  0.08199452  0.75474193    -0.15000
H493        H  0.79114768  0.06712413  0.76327535     0.20300
H494        H  0.76957450  0.15950432  0.80076498     0.16400
H495        H  0.82132094  0.16439465  0.82200036     0.18900
H496        H  0.73966712  0.06167895  0.74481392     0.12200
C497        C  0.87410653  0.24387344  0.26117846     0.16100
C498        C  0.85767236  0.22191664  0.26447675    -0.32900
C499        C  0.86579853  0.20128900  0.29326714     0.20500
C500        C  0.88934774  0.20248297  0.31741788     0.02700
C501        C  0.90547322  0.22467478  0.31500175    -0.22700
C502        C  0.89727751  0.24533907  0.28642132     0.11900
S503        S  0.86862963  0.27009791  0.22569530    -0.06300
C504        C  0.89764798  0.28342510  0.24557370    -0.09800
C505        C  0.91070468  0.26817408  0.27815174    -0.26400
S506        S  0.89681335  0.17471126  0.34727782    -0.03600
C507        C  0.86769807  0.16141212  0.32782540    -0.17000
C508        C  0.85304407  0.17785628  0.29969028    -0.15000
H509        H  0.83963942  0.22073412  0.24467474     0.20300
H510        H  0.92387247  0.22554824  0.33373634     0.16400
H511        H  0.92945670  0.27308076  0.29355472     0.18900
H512        H  0.83468556  0.17254572  0.28322250     0.12200
C513        C  0.97311978  0.26222188  0.96501074     0.16100
C514        C  0.97287997  0.28745760  0.98339376    -0.32900
C515        C  0.97414897  0.29020602  0.03219531     0.20500
C516        C  0.97705031  0.26889550  0.06153262     0.02700
C517        C  0.97810853  0.24357622  0.04298024    -0.22700
C518        C  0.97535234  0.24071705  0.99413670     0.11900
S519        S  0.96632850  0.25496046  0.90791890    -0.06300
C520        C  0.96593574  0.22261585  0.92318306    -0.09800
C521        C  0.97122950  0.21779812  0.97015124    -0.26400
S522        S  0.97426905  0.27615412  0.11988987    -0.03600
C523        C  0.96777880  0.30787739  0.10424642    -0.17000
C524        C  0.96903390  0.31255559  0.05646534    -0.15000
H525        H  0.96958004  0.30408386  0.96088867     0.20300
H526        H  0.97884430  0.22678048  0.06583349     0.16400
H527        H  0.96987847  0.19882454  0.98650665     0.18900
H528        H  0.96371094  0.33077376  0.04003761     0.12200
C529        C  0.90179519  0.41877675  0.49246720     0.16100
C530        C  0.92020865  0.41422406  0.45718070    -0.32900
C531        C  0.91132350  0.40164432  0.41632729     0.20500
C532        C  0.88531465  0.39435179  0.41079588     0.02700
C533        C  0.86709424  0.39900826  0.44563038    -0.22700
C534        C  0.87595178  0.41124522  0.48624468     0.11900
S535        S  0.90829792  0.43218581  0.54627407    -0.06300
C536        C  0.87592643  0.42690033  0.55989983    -0.09800
C537        C  0.86109348  0.41612417  0.52428522    -0.26400
S538        S  0.87766445  0.38063052  0.35849840    -0.03600
C539        C  0.90984060  0.38449450  0.34370236    -0.17000
C540        C  0.92574382  0.39572794  0.37753939    -0.15000
H541        H  0.94046682  0.41995232  0.46150882     0.20300
H542        H  0.84683516  0.39322101  0.44134980     0.16400
H543        H  0.84058449  0.41096476  0.52682144     0.18900
H544        H  0.94618779  0.40059037  0.37291230     0.12200
C545        C  0.87242974  0.44219336  0.92901000     0.16100
C546        C  0.87304145  0.44459148  0.97792605    -0.32900
C547        C  0.89252174  0.43098570  0.00227568     0.20500
C548        C  0.91094745  0.41624174  0.97892133     0.02700
C549        C  0.91063383  0.41429517  0.93013111    -0.22700
C550        C  0.89073834  0.42718196  0.90601601     0.11900
S551        S  0.84954469  0.45577218  0.89287268    -0.06300
C552        C  0.86466580  0.44055415  0.84673485    -0.09800
C553        C  0.88629650  0.42605299  0.85895779    -0.26400
S554        S  0.93071172  0.39837145  0.01444867    -0.03600
C555        C  0.91382991  0.41059392  0.06119790    -0.17000
C556        C  0.89430867  0.42799948  0.04983347    -0.15000
H557        H  0.85835169  0.45561560  0.99628172     0.20300
H558        H  0.92449275  0.40218653  0.91191687     0.16400
H559        H  0.89832079  0.41540392  0.83456393     0.18900
H560        H  0.88053462  0.43590353  0.07465085     0.12200
C561        C  0.85317991  0.31212730  0.73267833     0.16100
C562        C  0.85022692  0.28680946  0.75076487    -0.32900
C563        C  0.87285751  0.27159421  0.75521625     0.20500
C564        C  0.89709963  0.28106803  0.74154862     0.02700
C565        C  0.89997642  0.30610431  0.72335396    -0.22700
C566        C  0.87760428  0.32133793  0.71965765     0.11900
S567        S  0.82876539  0.33458328  0.72653041    -0.06300
C568        C  0.85205687  0.35645421  0.70711597    -0.09800
C569        C  0.87706854  0.34654377  0.70503079    -0.26400
S570        S  0.92239875  0.26050273  0.75109890    -0.03600
C571        C  0.90036910  0.23877664  0.77455127    -0.17000
C572        C  0.87460173  0.24709522  0.77425086    -0.15000
H573        H  0.83135055  0.27955239  0.76183366     0.20300
H574        H  0.91897162  0.31363110  0.71355133     0.16400
H575        H  0.89420767  0.35746134  0.69436249     0.18900
H576        H  0.85827266  0.23619203  0.78841106     0.12200
C577        C  0.68041030  0.38029861  0.79303792     0.16100
C578        C  0.70350381  0.37898190  0.76716457    -0.32900
C579        C  0.72039243  0.40054951  0.76878709     0.20500
C580        C  0.71488828  0.42230572  0.79559759     0.02700
C581        C  0.69160378  0.42378908  0.82091760    -0.22700
C582        C  0.67448937  0.40239782  0.81861443     0.11900
S583        S  0.65689162  0.35655427  0.79438144    -0.06300
C584        C  0.63854130  0.37705447  0.82826776    -0.09800
C585        C  0.65038783  0.40068532  0.83872934    -0.26400
S586        S  0.73831596  0.44613519  0.79374429    -0.03600
C587        C  0.75534349  0.42673482  0.75570754    -0.17000
C588        C  0.74343857  0.40313855  0.74531420    -0.15000
H589        H  0.70796914  0.36204376  0.74627439     0.20300
H590        H  0.68690286  0.44093575  0.84106968     0.16400
H591        H  0.64145601  0.41609722  0.85876416     0.18900
H592        H  0.75132478  0.38861470  0.72195777     0.12200
C593        C  0.75851464  0.42523203  0.23500105     0.16100
C594        C  0.78249568  0.42871965  0.21227854    -0.32900
C595        C  0.79917902  0.40725310  0.20975104     0.20500
C596        C  0.79205041  0.38317154  0.22777711     0.02700
C597        C  0.76809294  0.37970163  0.25060517    -0.22700
C598        C  0.75174943  0.40136789  0.25437461     0.11900
S599        S  0.73601533  0.44911945  0.24354130    -0.06300
C600        C  0.71777063  0.42693006  0.27488489    -0.09800
C601        C  0.72845738  0.40229153  0.27769267    -0.26400
S602        S  0.81537080  0.35978077  0.22224182    -0.03600
C603        C  0.83523992  0.38292683  0.19679409    -0.17000
C604        C  0.82400045  0.40725439  0.19209605    -0.15000
H605        H  0.78818112  0.44748237  0.19827204     0.20300
H606        H  0.76274703  0.36114436  0.26585667     0.16400
H607        H  0.71973405  0.38602380  0.29616838     0.18900
H608        H  0.83379220  0.42423378  0.17787327     0.12200
C609        C  0.70791949  0.49571586  0.51077282     0.16100
C610        C  0.71643796  0.49557908  0.55761265    -0.32900
C611        C  0.74346333  0.49664417  0.56608079     0.20500
C612        C  0.76113527  0.49864573  0.52952936     0.02700
C613        C  0.75253234  0.50015483  0.48287831    -0.22700
C614        C  0.72559370  0.49818103  0.47430226     0.11900
S615        S  0.67692367  0.48798095  0.49310989    -0.06300
C616        C  0.68790379  0.48784132  0.43607532    -0.09800
C617        C  0.71406565  0.49427882  0.43128908    -0.26400
S618        S  0.79290130  0.49416965  0.54583139    -0.03600
C619        C  0.78238868  0.48958203  0.60249201    -0.17000
C620        C  0.75563639  0.49197045  0.60824437    -0.15000
H621        H  0.70277183  0.49239359  0.58594757     0.20300
H622        H  0.76636496  0.50044727  0.45427926     0.16400
H623        H  0.72477933  0.49277908  0.39876248     0.18900
H624        H  0.74539582  0.48731344  0.64036301     0.12200
C625        C  0.57958342  0.27457562  0.29329900     0.16100
C626        C  0.57600203  0.29929183  0.31257025    -0.32900
C627        C  0.59774786  0.31590283  0.31528826     0.20500
C628        C  0.62222528  0.30821392  0.30038813     0.02700
C629        C  0.62586691  0.28329540  0.28119011    -0.22700
C630        C  0.60388498  0.26674955  0.27764069     0.11900
S631        S  0.55516104  0.25235175  0.28494361    -0.06300
C632        C  0.57765498  0.23214813  0.25938074    -0.09800
C633        C  0.60291180  0.24228392  0.25802002    -0.26400
S634        S  0.64581083  0.33195360  0.30559861    -0.03600
C635        C  0.62214315  0.35246722  0.32689519    -0.17000
C636        C  0.59759271  0.34111934  0.33047529    -0.15000
H637        H  0.55692601  0.30554100  0.32393717     0.20300
H638        H  0.64479642  0.27730871  0.26864758     0.16400
H639        H  0.61945478  0.23257419  0.24256950     0.18900
H640        H  0.58030392  0.35104854  0.34248476     0.12200
C641        C  0.60090564  0.43777938  0.10581629     0.16100
C642        C  0.59710310  0.44171663  0.05756873    -0.32900
C643        C  0.58209084  0.42306220  0.03323742     0.20500
C644        C  0.57122063  0.40175098  0.05613240     0.02700
C645        C  0.57475696  0.39804959  0.10401379    -0.22700
C646        C  0.58994640  0.41632445  0.12795295     0.11900
S647        S  0.61884445  0.45747740  0.14234052    -0.06300
C648        C  0.61131856  0.43627617  0.18724191    -0.09800
C649        C  0.59592733  0.41529670  0.17425847    -0.26400
S650        S  0.55610593  0.37975919  0.02083277    -0.03600
C651        C  0.56451022  0.39922329  0.97442648    -0.17000
C652        C  0.57798272  0.42184404  0.98577831    -0.15000
H653        H  0.60593847  0.45813612  0.03966921     0.20300
H654        H  0.56667504  0.38115714  0.12164806     0.16400
H655        H  0.58904963  0.40017193  0.19774780     0.18900
H656        H  0.58623921  0.43530677  0.96052796     0.12200
C657        C  0.59336867  0.42219177  0.55510929     0.16100
C658        C  0.59527582  0.42161092  0.60380875    -0.32900
C659        C  0.57761408  0.40572792  0.62780480     0.20500
C660        C  0.55861072  0.39116979  0.60472708     0.02700
C661        C  0.55640870  0.39205792  0.55580487    -0.22700
C662        C  0.57426625  0.40789204  0.53163092     0.11900
S663        S  0.61489378  0.43807782  0.51988912    -0.06300
C664        C  0.59786379  0.42556345  0.47310714    -0.09800
C665        C  0.57659453  0.41005004  0.48408379    -0.26400
S666        S  0.53958195  0.37258734  0.64091270    -0.03600
C667        C  0.55756204  0.38477135  0.68719824    -0.17000
C668        C  0.57710489  0.40214179  0.67496276    -0.15000
H669        H  0.61035599  0.43249740  0.62214770     0.20300
H670        H  0.54186535  0.38050432  0.53738045     0.16400
H671        H  0.56474847  0.39951587  0.45877249     0.18900
H672        H  0.59030738  0.41169005  0.69936278     0.12200
C673        C  0.06533920  0.06242599  0.74718600     0.16100
C674        C  0.05535299  0.08784739  0.75075369    -0.32900
C675        C  0.03517539  0.09220334  0.78334235     0.20500
C676        C  0.02604186  0.07231067  0.81189201     0.02700
C677        C  0.03595544  0.04711858  0.80835044    -0.22700
C678        C  0.05533622  0.04261569  0.77491687     0.11900
S679        S  0.08926684  0.05234353  0.70915522    -0.06300
C680        C  0.08468234  0.02106543  0.72980789    -0.09800
C681        C  0.06608236  0.01902770  0.76481829    -0.26400
S682        S  0.00054370  0.08057811  0.84688067    -0.03600
C683        C  0.00117563  0.11108930  0.82192569    -0.17000
C684        C  0.02098953  0.11468350  0.78914107    -0.15000
H685        H  0.06242028  0.10329782  0.72826009     0.20300
H686        H  0.02821766  0.03145218  0.82963542     0.16400
H687        H  0.06084129  0.00106646  0.78240813     0.18900
H688        H  0.02362127  0.13208979  0.76825246     0.12200
C689        C  0.41089502  0.05255829  0.28087136     0.16100
C690        C  0.42091204  0.07789226  0.27310181    -0.32900
C691        C  0.44515628  0.08034590  0.24984619     0.20500
C692        C  0.45847397  0.05855919  0.23473929     0.02700
C693        C  0.44875256  0.03349884  0.24312725    -0.22700
C694        C  0.42490951  0.03107313  0.26662316     0.11900
S695        S  0.38149483  0.04464933  0.30684110    -0.06300
C696        C  0.38873012  0.01213539  0.29896458    -0.09800
C697        C  0.41259372  0.00815870  0.27727356    -0.26400
S698        S  0.48744399  0.06501898  0.20776589    -0.03600
C699        C  0.48235560  0.09764119  0.21747894    -0.17000
C700        C  0.45892439  0.10297520  0.24025474    -0.15000
H701        H  0.41035096  0.09485245  0.28462939     0.20300
H702        H  0.45941107  0.01652592  0.23190856     0.16400
H703        H  0.42032458  0.98926241  0.26833932     0.18900
H704        H  0.45282684  0.12219665  0.25084883     0.12200
C705        C  0.26618471  0.98933015  0.51176148     0.16100
C706        C  0.25738707  0.98848128  0.55837387    -0.32900
C707        C  0.23038509  0.99054329  0.56621513     0.20500
C708        C  0.21307281  0.99411690  0.52929452     0.02700
C709        C  0.22201549  0.99616433  0.48295636    -0.22700
C710        C  0.24887698  0.99326741  0.47494957     0.11900
S711        S  0.29696098  0.98122952  0.49437596    -0.06300
C712        C  0.28638278  0.98278317  0.43690545    -0.09800
C713        C  0.26051489  0.99013769  0.43191930    -0.26400
S714        S  0.18094178  0.99139352  0.54463191    -0.03600
C715        C  0.19073457  0.98552019  0.60148675    -0.17000
C716        C  0.21764857  0.98600097  0.60792300    -0.15000
H717        H  0.27073425  0.98428008  0.58688198     0.20300
H718        H  0.20837103  0.99780815  0.45402967     0.16400
H719        H  0.24997195  0.99003654  0.39892721     0.18900
H720        H  0.22736546  0.98054826  0.64022982     0.12200
C721        C  0.93835772  0.58581986  0.78127193     0.16100
C722        C  0.91387232  0.57757196  0.76342451    -0.32900
C723        C  0.91069676  0.55097110  0.75239079     0.20500
C724        C  0.93117621  0.53380167  0.75868001     0.02700
C725        C  0.95515147  0.54185334  0.77732782    -0.22700
C726        C  0.95819431  0.56808499  0.78871080     0.11900
S727        S  0.94752854  0.61733651  0.79305830    -0.06300
C728        C  0.97808063  0.60608904  0.80896519    -0.09800
C729        C  0.98065873  0.57941287  0.80529536    -0.26400
S730        S  0.92452804  0.50274490  0.74292669    -0.03600
C731        C  0.89327721  0.51216399  0.72840384    -0.17000
C732        C  0.88852764  0.53853695  0.73518723    -0.15000
H733        H  0.89823329  0.59126919  0.75776774     0.20300
H734        H  0.97092678  0.52822140  0.78229387     0.16400
H735        H  0.99867600  0.56900770  0.81125348     0.18900
H736        H  0.86993515  0.54785263  0.72911495     0.12200
C737        C  0.10165953  0.77519272  0.75472455     0.16100
C738        C  0.11884947  0.79557353  0.74305790    -0.32900
C739        C  0.10787542  0.81922625  0.72856969     0.20500
C740        C  0.08103038  0.82237558  0.72583102     0.02700
C741        C  0.06390858  0.80200134  0.73708135    -0.22700
C742        C  0.07485473  0.77843110  0.75147222     0.11900
S743        S  0.11084600  0.74526092  0.77483383    -0.06300
C744        C  0.07820757  0.73710239  0.77843100    -0.09800
C745        C  0.06132331  0.75663106  0.76470689    -0.26400
S746        S  0.07141056  0.85262245  0.70908155    -0.03600
C747        C  0.10389590  0.86128388  0.70554992    -0.17000
C748        C  0.12118194  0.84155855  0.71673515    -0.15000
H749        H  0.13977387  0.79320790  0.74568660     0.20300
H750        H  0.04297826  0.80449905  0.73518799     0.16400
H751        H  0.04023163  0.75517289  0.76548258     0.18900
H752        H  0.14223599  0.84359405  0.71703365     0.12200
C753        C  0.93756061  0.92971683  0.25478273     0.16100
C754        C  0.91237000  0.93975441  0.26307281    -0.32900
C755        C  0.91056884  0.96348063  0.28790417     0.20500
C756        C  0.93286628  0.97601503  0.30436544     0.02700
C757        C  0.95769970  0.96614924  0.29603033    -0.22700
C758        C  0.95946997  0.94309373  0.27051066     0.11900
S759        S  0.94486763  0.90148543  0.22509120    -0.06300
C760        C  0.97763340  0.90866352  0.23314271    -0.09800
C761        C  0.98217070  0.93140873  0.25798762    -0.26400
S762        S  0.92759410  0.00494273  0.33102695    -0.03600
C763        C  0.89479852  0.00119383  0.31895901    -0.17000
C764        C  0.88836479  0.97791031  0.29649647    -0.15000
H765        H  0.89510061  0.92987395  0.24998184     0.20300
H766        H  0.97501932  0.97642540  0.30790531     0.16400
H767        H  0.00132158  0.93893099  0.26721214     0.18900
H768        H  0.86899838  0.97280028  0.28406579     0.12200
C769        C  0.21512847  0.89373801  0.26486797     0.16100
C770        C  0.19340393  0.87700858  0.26217777    -0.32900
C771        C  0.17453128  0.88206738  0.22769603     0.20500
C772        C  0.17716181  0.90295558  0.19721850     0.02700
C773        C  0.19932268  0.91931709  0.19906207    -0.22700
C774        C  0.21823305  0.91426038  0.23374404     0.11900
S775        S  0.23913866  0.89158678  0.30615832    -0.06300
C776        C  0.25397427  0.91844030  0.28120828    -0.09800
C777        C  0.24070810  0.92844827  0.24266557    -0.26400
S778        S  0.15057896  0.90759490  0.16177637    -0.03600
C779        C  0.13601669  0.88090461  0.18786384    -0.17000
C780        C  0.15118823  0.86903580  0.22187583    -0.15000
H781        H  0.19095430  0.86116269  0.28681206     0.20300
H782        H  0.20131561  0.93572771  0.17553068     0.16400
H783        H  0.24692658  0.94532718  0.22280749     0.18900
H784        H  0.14469619  0.85295034  0.24352613     0.12200
C785        C  0.00028302  0.75247837  0.96529374     0.16100
C786        C  0.99740749  0.77758959  0.98381129    -0.32900
C787        C  0.99880220  0.78050856  0.03272532     0.20500
C788        C  0.00163596  0.75922362  0.06211731     0.02700
C789        C  0.00429068  0.73405173  0.04360441    -0.22700
C790        C  0.00415803  0.73129424  0.99455586     0.11900
S791        S  0.00321956  0.74558479  0.90691319    -0.06300
C792        C  0.01048175  0.71400280  0.92191382    -0.09800
C793        C  0.01026092  0.70920092  0.96981898    -0.26400
S794        S  0.00578344  0.76716550  0.11994882    -0.03600
C795        C  0.00508083  0.79953313  0.10418830    -0.17000
C796        C  0.00079945  0.80363994  0.05664026    -0.15000
H797        H  0.99590872  0.79432692  0.96096024     0.20300
H798        H  0.00803244  0.71761402  0.06630986     0.16400
H799        H  0.01613105  0.69103254  0.98577170     0.18900
H800        H  0.00170321  0.82252079  0.03984903     0.12200
C801        C  0.08470479  0.89890074  0.40634683     0.16100
C802        C  0.10227696  0.90746791  0.44038335    -0.32900
C803        C  0.09199779  0.91808475  0.48115800     0.20500
C804        C  0.06534234  0.92021787  0.48835213     0.02700
C805        C  0.04754964  0.91162066  0.45392786    -0.22700
C806        C  0.05792609  0.90078414  0.41280495     0.11900
S807        S  0.09391765  0.88670187  0.35383736    -0.06300
C808        C  0.06139897  0.88405555  0.33983077    -0.09800
C809        C  0.04426132  0.89185897  0.37448502    -0.26400
S810        S  0.05736363  0.93205604  0.54258383    -0.03600
C811        C  0.09031125  0.93333505  0.55518020    -0.17000
C812        C  0.10628042  0.92590014  0.51880295    -0.15000
H813        H  0.12316620  0.90581862  0.43537371     0.20300
H814        H  0.02667405  0.91305234  0.45911949     0.16400
H815        H  0.02321970  0.89245420  0.37068374     0.18900
H816        H  0.12736905  0.92451156  0.52101209     0.12200
C817        C  0.05861281  0.91471607  0.97528300     0.16100
C818        C  0.05670790  0.91581433  0.92642579    -0.32900
C819        C  0.07711950  0.92808108  0.90222221     0.20500
C820        C  0.09824429  0.93928405  0.92541286     0.02700
C821        C  0.10000477  0.93844384  0.97431418    -0.22700
C822        C  0.07982140  0.92578799  0.99850459     0.11900
S823        S  0.03762748  0.89786386  0.01060039    -0.06300
C824        C  0.05773246  0.90585562  0.05678522    -0.09800
C825        C  0.07929162  0.92085586  0.04547763    -0.26400
S826        S  0.12127120  0.95270529  0.88938880    -0.03600
C827        C  0.10231982  0.94279281  0.84272626    -0.17000
C828        C  0.07941973  0.92993917  0.85475477    -0.15000
H829        H  0.04052820  0.90670673  0.90799547     0.20300
H830        H  0.11673810  0.94657770  0.99260388     0.16400
H831        H  0.09476056  0.92610407  0.06980213     0.18900
H832        H  0.06521856  0.92229504  0.82999901     0.12200
C833        C  0.03488977  0.43454144  0.25525334     0.16100
C834        C  0.06057919  0.44413973  0.26048333    -0.32900
C835        C  0.06432741  0.46696511  0.28711050     0.20500
C836        C  0.04349054  0.47920334  0.30845073     0.02700
C837        C  0.01794934  0.46971851  0.30312045    -0.22700
C838        C  0.01416985  0.44742794  0.27561106     0.11900
S839        S  0.02575204  0.40738486  0.22388142    -0.06300
C840        C  0.99369553  0.41411450  0.23733064    -0.09800
C841        C  0.99064382  0.43601382  0.26514346    -0.26400
S842        S  0.05154376  0.50716141  0.33732653    -0.03600
C843        C  0.08334774  0.50311926  0.31935868    -0.17000
C844        C  0.08735786  0.48064034  0.29328840    -0.15000
H845        H  0.07681318  0.43458739  0.24374511     0.20300
H846        H  0.00162014  0.47968188  0.31878172     0.16400
H847        H  0.97206517  0.44305966  0.27769016     0.18900
H848        H  0.10573612  0.47542391  0.27737529     0.12200
C849        C  0.08817554  0.59675020  0.54647998     0.16100
C850        C  0.08542125  0.59516781  0.59500785    -0.32900
C851        C  0.06941818  0.61344193  0.61667368     0.20500
C852        C  0.05647800  0.63255424  0.59158106     0.02700
C853        C  0.05854538  0.63361915  0.54253105    -0.22700
C854        C  0.07472591  0.61527516  0.52069843     0.11900
S855        S  0.10896410  0.57803819  0.51468949    -0.06300
C856        C  0.09923267  0.59503806  0.46591280    -0.09800
C857        C  0.08064726  0.61398394  0.47396584    -0.26400
S858        S  0.03960497  0.65404032  0.62599997    -0.03600
C859        C  0.04987039  0.63651593  0.67412198    -0.17000
C860        C  0.06548770  0.61547929  0.66358830    -0.15000
H861        H  0.09599111  0.58080041  0.61527984     0.20300
H862        H  0.04864875  0.64851134  0.52244500     0.16400
H863        H  0.07297791  0.62697433  0.44742273     0.18900
H864        H  0.07418335  0.60260320  0.68932659     0.12200
C865        C  0.08961708  0.59724717  0.11649528     0.16100
C866        C  0.07523390  0.61231020  0.08508978    -0.32900
C867        C  0.07893643  0.60796599  0.03735240     0.20500
C868        C  0.09592660  0.58912368  0.02125260     0.02700
C869        C  0.11076503  0.57421279  0.05290771    -0.22700
C870        C  0.10735957  0.57889817  0.10106819     0.11900
S871        S  0.08706288  0.59964000  0.17548028    -0.06300
C872        C  0.11053960  0.57603470  0.18023986    -0.09800
C873        C  0.11992160  0.56679639  0.13788918    -0.26400
S874        S  0.09736181  0.58717356  0.96145904    -0.03600
C875        C  0.07546903  0.61248133  0.95881497    -0.17000
C876        C  0.06735455  0.62153061  0.00183801    -0.15000
H877        H  0.06178304  0.62691085  0.09739517     0.20300
H878        H  0.12439947  0.55980051  0.04059001     0.16400
H879        H  0.13451535  0.55182425  0.13432094     0.18900
H880        H  0.05417114  0.63765446  0.00683450     0.12200
C881        C  0.10163061  0.69493732  0.25605336     0.16100
C882        C  0.09407198  0.71399682  0.22381234    -0.32900
C883        C  0.08715967  0.73838693  0.24138442     0.20500
C884        C  0.08744213  0.74362933  0.28904897     0.02700
C885        C  0.09554300  0.72464047  0.32140745    -0.22700
C886        C  0.10276737  0.70020643  0.30371544     0.11900
S887        S  0.10902981  0.66374918  0.24147917    -0.06300
C888        C  0.11425316  0.65766488  0.30005561    -0.09800
C889        C  0.11047932  0.67885715  0.32927674    -0.26400
S890        S  0.07692824  0.77421339  0.30297059    -0.03600
C891        C  0.07283769  0.78001100  0.24384273    -0.17000
C892        C  0.07907006  0.75920209  0.21534196    -0.15000
H893        H  0.09324452  0.70986769  0.18664324     0.20300
H894        H  0.09586800  0.72860873  0.35864184     0.16400
H895        H  0.11210559  0.67831182  0.36710380     0.18900
H896        H  0.07731613  0.75916682  0.17750350     0.12200
C897        C  0.41140555  0.45846293  0.74694946     0.16100
C898        C  0.42086999  0.43278441  0.75179232    -0.32900
C899        C  0.44394923  0.42902464  0.77839724     0.20500
C900        C  0.45660845  0.44998503  0.79925735     0.02700
C901        C  0.44740505  0.47537982  0.79403958    -0.22700
C902        C  0.42478333  0.47910565  0.76725939     0.11900
S903        S  0.38361895  0.46780715  0.71711232    -0.06300
C904        C  0.39079724  0.49979040  0.73141686    -0.09800
C905        C  0.41334757  0.50257873  0.75817245    -0.26400
S906        S  0.48455194  0.44236864  0.82834787    -0.03600
C907        C  0.48001799  0.41033813  0.81212316    -0.17000
C908        C  0.45735708  0.40597221  0.78577389    -0.15000
H909        H  0.41084995  0.41657180  0.73534673     0.20300
H910        H  0.45769344  0.49166063  0.80976129     0.16400
H911        H  0.42079835  0.52096906  0.77125673     0.18900
H912        H  0.45193041  0.38745308  0.77041959     0.12200
C913        C  0.18159758  0.61921549  0.80441754     0.16100
C914        C  0.20802626  0.61324441  0.81213198    -0.32900
C915        C  0.22250518  0.60394057  0.77399196     0.20500
C916        C  0.21116083  0.60107188  0.73002294     0.02700
C917        C  0.18464548  0.60650043  0.72256235    -0.22700
C918        C  0.17013240  0.61549103  0.76077395     0.11900
S919        S  0.16081874  0.63120283  0.84577250    -0.06300
C920        C  0.13629156  0.63059242  0.80415792    -0.09800
C921        C  0.14406891  0.62167921  0.76054638    -0.26400
S922        S  0.23220296  0.59108738  0.68761521    -0.03600
C923        C  0.25653167  0.59018561  0.72954832    -0.17000
C924        C  0.24853814  0.59728956  0.77413189    -0.15000
H925        H  0.21695210  0.61589519  0.84631646     0.20300
H926        H  0.17574995  0.60400355  0.68829857     0.16400
H927        H  0.13132326  0.61989571  0.73025972     0.18900
H928        H  0.26122689  0.59823544  0.80457897     0.12200
C929        C  0.24272069  0.52922190  0.45089832     0.16100
C930        C  0.26799726  0.53153896  0.46972202    -0.32900
C931        C  0.27125464  0.52701715  0.51792528     0.20500
C932        C  0.25049459  0.51950407  0.54596487     0.02700
C933        C  0.22524905  0.51660686  0.52684847    -0.22700
C934        C  0.22176243  0.52213248  0.47888059     0.11900
S935        S  0.23418470  0.53846466  0.39545090    -0.06300
C936        C  0.20194278  0.53310900  0.40988430    -0.09800
C937        C  0.19825337  0.52430862  0.45543196    -0.26400
S938        S  0.25793051  0.51836752  0.60462154    -0.03600
C939        C  0.28902377  0.52914721  0.59139902    -0.17000
C940        C  0.29336779  0.53230650  0.54365285    -0.15000
H941        H  0.28408312  0.53836659  0.44839321     0.20300
H942        H  0.20876164  0.51201037  0.54902658     0.16400
H943        H  0.17934443  0.52196801  0.47176747     0.18900
H944        H  0.31105839  0.54050632  0.52888073     0.12200
C945        C  0.54080996  0.58335171  0.24521847     0.16100
C946        C  0.56407954  0.57429099  0.26608275    -0.32900
C947        C  0.56552171  0.54759308  0.27727799     0.20500
C948        C  0.54465936  0.53098544  0.26804681     0.02700
C949        C  0.52195905  0.53981955  0.24607173    -0.22700
C950        C  0.52058631  0.56622572  0.23476626     0.11900
S951        S  0.53337899  0.61528099  0.23394641    -0.06300
C952        C  0.50295578  0.60509513  0.21442994    -0.09800
C953        C  0.49926284  0.57839929  0.21618991    -0.26400
S954        S  0.54930658  0.49967387  0.28477049    -0.03600
C955        C  0.58020358  0.50833230  0.30354677    -0.17000
C956        C  0.58626430  0.53458699  0.29752709    -0.15000
H957        H  0.58001395  0.58750051  0.27420492     0.20300
H958        H  0.50579913  0.52670768  0.23888299     0.16400
H959        H  0.48102744  0.56855746  0.20806180     0.18900
H960        H  0.60493792  0.54342623  0.30605860     0.12200
C961        C  0.40446522  0.61242258  0.97930447     0.16100
C962        C  0.40361016  0.61386861  0.93052681    -0.32900
C963        C  0.38623906  0.59727960  0.90704416     0.20500
C964        C  0.37051060  0.57958996  0.93059752     0.02700
C965        C  0.37162833  0.57783474  0.97981817    -0.22700
C966        C  0.38896874  0.59475496  0.00356678     0.11900
S967        S  0.42243579  0.63292381  0.01360092    -0.06300
C968        C  0.40910713  0.61768181  0.06152544    -0.09800
C969        C  0.39189379  0.59744438  0.05124767    -0.26400
S970        S  0.35057088  0.56151304  0.89427868    -0.03600
C971        C  0.36374781  0.57823946  0.84735847    -0.17000
C972        C  0.38242101  0.59664111  0.85981812    -0.15000
H973        H  0.41550959  0.62784176  0.91168409     0.20300
H974        H  0.35923605  0.56433551  0.99872459     0.16400
H975        H  0.38087888  0.58658123  0.07709800     0.18900
H976        H  0.39297430  0.60890034  0.83536914     0.12200
C977        C  0.42051755  0.63442704  0.43154696     0.16100
C978        C  0.40935336  0.63858048  0.47552330    -0.32900
C979        C  0.40649811  0.61707837  0.50529101     0.20500
C980        C  0.41521870  0.59257432  0.49289368     0.02700
C981        C  0.42648093  0.58839938  0.44870578    -0.22700
C982        C  0.42844890  0.60981654  0.41807119     0.11900
S983        S  0.42362900  0.65773318  0.38926572    -0.06300
C984        C  0.43484305  0.63401020  0.35213563    -0.09800
C985        C  0.43656565  0.60942550  0.37222064    -0.26400
S986        S  0.40880864  0.56892277  0.53391999    -0.03600
C987        C  0.39331425  0.59224869  0.56669344    -0.17000
C988        C  0.39387932  0.61695005  0.54733604    -0.15000
H989        H  0.40225761  0.65757701  0.48541273     0.20300
H990        H  0.43250146  0.56917016  0.43801580     0.16400
H991        H  0.44261218  0.59209467  0.35380934     0.18900
H992        H  0.38462489  0.63380848  0.56258488     0.12200
C993        C  0.30575049  0.60207299  0.23567660     0.16100
C994        C  0.28489417  0.58495759  0.24445743    -0.32900
C995        C  0.26030413  0.59581392  0.25276260     0.20500
C996        C  0.25662727  0.62251198  0.25263292     0.02700
C997        C  0.27736107  0.63960709  0.24270047    -0.22700
C998        C  0.30193325  0.62875002  0.23410288     0.11900
S999        S  0.33733534  0.59284095  0.22725350    -0.06300
C1000       C  0.34537492  0.62522103  0.22070942    -0.09800
C1001       C  0.32459119  0.64214342  0.22471595    -0.26400
S1002       S  0.22577326  0.63183594  0.26738243    -0.03600
C1003       C  0.21762766  0.59939686  0.27289184    -0.17000
C1004       C  0.23790642  0.58243896  0.26375560    -0.15000
H1005       H  0.28780181  0.56413919  0.24564334     0.20300
H1006       H  0.27458212  0.66045198  0.24257818     0.16400
H1007       H  0.32611741  0.66310212  0.22185181     0.18900
H1008       H  0.23663694  0.56148616  0.26710891     0.12200
C1009       C  0.35679713  0.80830761  0.29615867     0.16100
C1010       C  0.35408495  0.78275371  0.27925023    -0.32900
C1011       C  0.37683150  0.76772459  0.27555973     0.20500
C1012       C  0.40105804  0.77757415  0.28876852     0.02700
C1013       C  0.40373203  0.80294181  0.30585659    -0.22700
C1014       C  0.38115032  0.81802045  0.30880520     0.11900
S1015       S  0.33202478  0.83040562  0.30117996    -0.06300
C1016       C  0.35498975  0.85295405  0.31943382    -0.09800
C1017       C  0.38021817  0.84347633  0.32218247    -0.26400
S1018       S  0.42642284  0.75687273  0.28017258    -0.03600
C1019       C  0.40431670  0.73461854  0.25801069    -0.17000
C1020       C  0.37857675  0.74295974  0.25785480    -0.15000
H1021       H  0.33524397  0.77514015  0.26851136     0.20300
H1022       H  0.42267675  0.81079722  0.31539079     0.16400
H1023       H  0.39717229  0.85483845  0.33251116     0.18900
H1024       H  0.36218674  0.73181464  0.24433833     0.12200
C1025       C  0.51233945  0.95336391  0.77459866     0.16100
C1026       C  0.52099397  0.97692525  0.75547854    -0.32900
C1027       C  0.54693664  0.97860764  0.74073944     0.20500
C1028       C  0.56389021  0.95790053  0.74556594     0.02700
C1029       C  0.55494765  0.93382694  0.76364087    -0.22700
C1030       C  0.52860645  0.93200077  0.77789358     0.11900
S1031       S  0.48144515  0.94809939  0.79374788    -0.06300
C1032       C  0.48957699  0.91619628  0.80501021    -0.09800
C1033       C  0.51553350  0.91033413  0.79522522    -0.26400
S1034       S  0.59554375  0.96555589  0.73070360    -0.03600
C1035       C  0.58537220  0.99667080  0.71690983    -0.17000
C1036       C  0.55888774  0.00047223  0.72339183    -0.15000
H1037       H  0.50804186  0.99340297  0.75259817     0.20300
H1038       H  0.56797507  0.91745177  0.76704591     0.16400
H1039       H  0.52399057  0.89118981  0.79860444     0.18900
H1040       H  0.54920672  0.01899480  0.71919978     0.12200
C1041       C  0.39986616  0.73862603  0.72471821     0.16100
C1042       C  0.40257721  0.71459358  0.70211572    -0.32900
C1043       C  0.38171039  0.69678406  0.70527294     0.20500
C1044       C  0.35878022  0.70290543  0.72835308     0.02700
C1045       C  0.35601839  0.72696225  0.75061160    -0.22700
C1046       C  0.37719039  0.74438670  0.74884823     0.11900
S1047       S  0.42360965  0.76220560  0.72844832    -0.06300
C1048       C  0.40297417  0.77951302  0.76409822    -0.09800
C1049       C  0.37889448  0.76774445  0.77147797    -0.26400
S1050       S  0.33613505  0.67829450  0.72978085    -0.03600
C1051       C  0.35820590  0.65925503  0.70060386    -0.17000
C1052       C  0.38149042  0.67167930  0.68937144    -0.15000
H1053       H  0.42051299  0.70961542  0.68435041     0.20300
H1054       H  0.33847983  0.73154009  0.76993921     0.16400
H1055       H  0.36363419  0.77559006  0.79339807     0.18900
H1056       H  0.39769136  0.66253488  0.67168127     0.12200
C1057       C  0.47483747  0.73758789  0.03215194     0.16100
C1058       C  0.47742832  0.74589970  0.98524105    -0.32900
C1059       C  0.47140454  0.77199530  0.97464723     0.20500
C1060       C  0.46388833  0.78905922  0.00961274     0.02700
C1061       C  0.46178896  0.78091681  0.05631865    -0.22700
C1062       C  0.46704532  0.75481599  0.06659549     0.11900
S1063       S  0.47704549  0.70599026  0.05136007    -0.06300
C1064       C  0.46708807  0.71619632  0.10601197    -0.09800
C1065       C  0.46259946  0.74270659  0.10871746    -0.26400
S1066       S  0.45403103  0.81868012  0.98985575    -0.03600
C1067       C  0.45955813  0.80823230  0.93346354    -0.17000
C1068       C  0.46919908  0.78304280  0.93060211    -0.15000
H1069       H  0.48237725  0.73227100  0.95784147     0.20300
H1070       H  0.45475480  0.79400672  0.08307735     0.16400
H1071       H  0.45430451  0.75226006  0.13896887     0.18900
H1072       H  0.47186082  0.77254150  0.89811348     0.12200
C1073       C  0.25398833  0.92160935  0.78214325     0.16100
C1074       C  0.27977429  0.92520232  0.79728516    -0.32900
C1075       C  0.29611969  0.90349750  0.79727890     0.20500
C1076       C  0.28724248  0.87913758  0.78338983     0.02700
C1077       C  0.26145925  0.87559386  0.76755461    -0.22700
C1078       C  0.24515624  0.89745755  0.76693222     0.11900
S1079       S  0.23143975  0.94576201  0.77856254    -0.06300
C1080       C  0.21007297  0.92335344  0.75493985    -0.09800
C1081       C  0.21990979  0.89839911  0.75077635    -0.26400
S1082       S  0.31023991  0.85521987  0.78741702    -0.03600
C1083       C  0.33197193  0.87845692  0.80757500    -0.17000
C1084       C  0.32176146  0.90327722  0.81066509    -0.15000
H1085       H  0.28684260  0.94413104  0.80830803     0.20300
H1086       H  0.25448920  0.85673905  0.75595425     0.16400
H1087       H  0.20939762  0.88208893  0.73558424     0.18900
H1088       H  0.33247995  0.92026571  0.82265335     0.12200
C1089       C  0.38873967  0.89480576  0.61481777     0.16100
C1090       C  0.37124936  0.90394626  0.58149222    -0.32900
C1091       C  0.38125518  0.91080291  0.53798074     0.20500
C1092       C  0.40749844  0.90836998  0.52717856     0.02700
C1093       C  0.42521646  0.89902172  0.56086477    -0.22700
C1094       C  0.41517763  0.89240786  0.60514499     0.11900
S1095       S  0.38002173  0.88756167  0.67029489    -0.06300
C1096       C  0.41240828  0.88176287  0.68167966    -0.09800
C1097       C  0.42905194  0.88445138  0.64383154    -0.26400
S1098       S  0.41484854  0.91662639  0.47047428    -0.03600
C1099       C  0.38216336  0.92305406  0.46229560    -0.17000
C1100       C  0.36684187  0.91946648  0.50139358    -0.15000
H1101       H  0.35065231  0.90592702  0.58935573     0.20300
H1102       H  0.44580262  0.89715061  0.55306490     0.16400
H1103       H  0.45007282  0.88239137  0.64534798     0.18900
H1104       H  0.34578910  0.92166568  0.50217359     0.12200
C1105       C  0.38801358  0.92507969  0.03179844     0.16100
C1106       C  0.38780750  0.94206251  0.07022460    -0.32900
C1107       C  0.37107020  0.93583372  0.10751438     0.20500
C1108       C  0.35505474  0.91391243  0.10625920     0.02700
C1109       C  0.35494013  0.89729733  0.06768417    -0.22700
C1110       C  0.37191798  0.90326237  0.03099433     0.11900
S1111       S  0.40772386  0.92813231  0.98377130    -0.06300
C1112       C  0.39425255  0.89949432  0.96327856    -0.09800
C1113       C  0.37537900  0.88861050  0.99192153    -0.26400
S1114       S  0.33794495  0.90819519  0.15620768    -0.03600
C1115       C  0.35228566  0.93569305  0.17892626    -0.17000
C1116       C  0.36941099  0.94861312  0.14946521    -0.15000
H1117       H  0.40061433  0.95890917  0.07159784     0.20300
H1118       H  0.34278373  0.87995346  0.06698674     0.16400
H1119       H  0.36468358  0.87079272  0.98455088     0.18900
H1120       H  0.38109733  0.96541444  0.15926894     0.12200
loop_ 
_geom_bond_atom_site_label_1 
_geom_bond_atom_site_label_2 
_geom_bond_distance 
_geom_bond_site_symmetry_2 
_ccdc_geom_bond_type 
O1           C16   1.267       .  A
O1           Al9   1.912       .  S
C2           O12   1.273       .  A
C2            O3   1.260       .  A
C2         C1096   1.454       .  S
O3           Al5   1.845       .  S
O4            C6   1.257       .  A
O4           Al5   1.912       .  S
Al5          O13   1.867       .  S
Al5          O15   1.899       .  S
Al5          O14   1.786       .  S
C6           O19   1.257       .  A
C6         C1083   1.471       .  S
O7           C17   1.251       .  A
O7           Al9   1.874       .  S
O8           C21   1.273       .  A
O8          Al18   1.954       .  S
Al9          O22   1.871       .  S
Al9          O19   1.913       .  S
Al9          O14   1.780       .  S
O10          C17   1.253       .  A
O10         Al18   1.903       .  S
O11          C20   1.259       .  A
O11         Al18   1.933       .  S
O12         Al18   1.945       .  S
O13          C20   1.249       .  A
O14         Al18   1.805       .  S
O15          C16   1.265       .  A
C16        C1112   1.464       .  S
C17        C1048   1.471       .  S
C20        C1032   1.483       .  S
C21          O22   1.260       .  A
C21        C1067   1.474       .  S
O23          C38   1.259       .  A
O23         Al31   1.881       .  S
C24          O34   1.266       .  A
C24          O25   1.267       .  A
C24         C984   1.473       .  S
O25         Al27   1.929       .  S
O26          C28   1.256       .  A
O26         Al27   1.887       .  S
Al27         O35   1.891       .  S
Al27         O37   1.927       .  S
Al27         O36   1.790       .  S
C28          O41   1.259       .  A
C28        C1000   1.467       .  S
O29          C39   1.260       .  A
O29         Al31   1.899       .  S
O30          C43   1.269       .  A
O30         Al40   1.933       .  S
Al31         O44   1.914       .  S
Al31         O41   1.911       .  S
Al31         O36   1.781       .  S
O32          C39   1.263       .  A
O32         Al40   1.924       .  S
O33          C42   1.260       .  A
O33         Al40   1.927       .  S
O34         Al40   1.903       .  S
O35          C42   1.257       .  A
O36         Al40   1.788       .  S
O37          C38   1.264       .  A
C38         C968   1.463       .  S
C39        C1019   1.473       .  S
C42         C952   1.477       .  S
C43          O44   1.263       .  A
C43        C1064   1.474       .  S
O45          C60   1.262       .  A
O45         Al53   1.880       .  S
C46          O56   1.260       .  A
C46          O47   1.271       .  A
C46         C971   1.476       .  S
O47         Al49   1.953       .  S
O48          C50   1.261       .  A
O48         Al49   1.924       .  S
Al49         O57   1.935       .  S
Al49         O59   1.968       .  S
Al49         O58   1.786       .  S
C50          O63   1.258       .  A
C50         C923   1.476       .  S
O51          C61   1.264       .  A
O51         Al53   1.907       .  S
O52          C65   1.263       .  A
O52         Al62   1.919       .  S
Al53         O66   1.916       .  S
Al53         O63   1.913       .  S
Al53         O58   1.775       .  S
O54          C61   1.266       .  A
O54         Al62   1.930       .  S
O55          C64   1.261       .  A
O55         Al62   1.905       .  S
O56         Al62   1.869       .  S
O57          C64   1.265       .  A
O58         Al62   1.775       .  S
O59          C60   1.276       .  A
C60         C939   1.479       .  S
C61        C1051   1.467       .  S
C64         C904   1.487       .  S
C65          O66   1.262       .  A
C65         C987   1.468       .  S
O67          C82   1.264       .  A
O67         Al75   1.913       .  S
C68          O78   1.259       .  A
C68          O69   1.264       .  A
C68         C872   1.467       .  S
O69         Al71   1.925       .  S
O70          C72   1.265       .  A
O70         Al71   1.926       .  S
Al71         O79   1.950       .  S
Al71         O81   1.929       .  S
Al71         O80   1.786       .  S
C72          O85   1.261       .  A
C72        C1003   1.471       .  S
O73          C83   1.266       .  A
O73         Al75   1.947       .  S
O74          C87   1.261       .  A
O74         Al84   1.919       .  S
Al75         O88   1.898       .  S
Al75         O85   1.899       .  S
Al75         O80   1.775       .  S
O76          C83   1.256       .  A
O76         Al84   1.882       .  S
O77          C86   1.262       .  A
O77         Al84   1.890       .  S
O78         Al84   1.895       .  S
O79          C86   1.270       .  A
O80         Al84   1.776       .  S
O81          C82   1.269       .  A
C82         C936   1.472       .  S
C83         C888   1.468       .  S
C86         C843   1.479       .  S
C87          O88   1.259       .  A
C87         C856   1.463       .  S
O89         C104   1.266       .  A
O89         Al97   1.918       .  S
C90         O100   1.269       .  A
C90          O91   1.260       .  A
C90         C808   1.456       .  S
O91         Al93   1.870       .  S
O92          C94   1.260       .  A
O92         Al93   1.924       .  S
Al93        O101   1.896       .  S
Al93        O103   1.892       .  S
Al93        O102   1.773       .  S
C94         O107   1.263       .  A
C94         C779   1.472       .  S
O95         C105   1.262       .  A
O95         Al97   1.914       .  S
O96         C109   1.271       .  A
O96        Al106   1.954       .  S
Al97        O110   1.885       .  S
Al97        O107   1.923       .  S
Al97        O102   1.770       .  S
O98         C105   1.259       .  A
O98        Al106   1.905       .  S
O99         C108   1.265       .  A
O99        Al106   1.933   1_655  S
O100       Al106   1.945       .  S
O101        C108   1.260   1_455  A
O102       Al106   1.787       .  S
O103        C104   1.262       .  A
C104        C824   1.450       .  S
C105        C891   1.472       .  S
C108        C760   1.481       .  S
C109        O110   1.259       .  A
C109        C795   1.474       .  S
O111        C126   1.259       .  A
O111       Al119   1.888       .  S
C112        O122   1.264       .  A
C112        O113   1.259       .  A
C112        C859   1.469       .  S
O113       Al115   1.888       .  S
O114        C116   1.259       .  A
O114       Al115   1.901       .  S
Al115       O123   1.901       .  S
Al115       O125   1.923       .  S
Al115       O124   1.782       .  S
C116        O129   1.264       .  A
C116        C920   1.476       .  S
O117        C127   1.260       .  A
O117       Al119   1.900       .  S
O118        C131   1.266       .  A
O118       Al128   1.920       .  S
Al119       O132   1.914       .  S
Al119       O129   1.933       .  S
Al119       O124   1.779       .  S
O120        C127   1.263       .  A
O120       Al128   1.913       .  S
O121        C130   1.264       .  A
O121       Al128   1.926       .  S
O122       Al128   1.923       .  S
O123        C130   1.265       .  A
O124       Al128   1.791       .  S
O125        C126   1.261       .  A
C126        C875   1.465       .  S
C127        C744   1.469       .  S
C130        C728   1.476   1_455  S
C131        O132   1.263       .  A
C131        C792   1.471       .  S
O133        C148   1.258       .  A
O133       Al141   1.881       .  S
C134        O144   1.261       .  A
C134        O135   1.269       .  A
C134       C1115   1.451       .  S
O135       Al137   1.932       .  S
O136        C138   1.260       .  A
O136       Al137   1.921       .  S
Al137       O145   1.939       .  S
Al137       O147   1.948       .  S
Al137       O146   1.796       .  S
C138        O151   1.255       .  A
C138        C776   1.480       .  S
O139        C149   1.260       .  A
O139       Al141   1.919       .  S
O140        C153   1.264       .  A
O140       Al150   1.906       .  S
Al141       O154   1.889       .  S
Al141       O151   1.889       .  S
Al141       O146   1.779       .  S
O142        C149   1.258       .  A
O142       Al150   1.906       .  S
O143        C152   1.256       .  A
O143       Al150   1.887       .  S
O144       Al150   1.872       .  S
O145        C152   1.263       .  A
O146       Al150   1.788       .  S
O147        C148   1.270       .  A
C148        C712   1.475       .  S
C149       C1016   1.473       .  S
C152        C696   1.487   1_565  S
C153        O154   1.263       .  A
C153       C1099   1.457       .  S
O155        C170   1.259       .  A
O155       Al163   1.884       .  S
C156        O166   1.262       .  A
C156        O157   1.273       .  A
C156        C827   1.464       .  S
O157       Al159   1.941       .  S
O158        C160   1.255       .  A
O158       Al159   1.893       .  S
Al159       O167   1.926       .  S
Al159       O169   1.946       .  S
Al159       O168   1.790       .  S
C160        O173   1.254       .  A
C160       C1080   1.465       .  S
O161        C171   1.258       .  A
O161       Al163   1.905       .  S
O162        C175   1.265       .  A
O162       Al172   1.907       .  S
Al163       O176   1.897       .  S
Al163       O173   1.890       .  S
Al163       O168   1.779       .  S
O164        C171   1.259       .  A
O164       Al172   1.914       .  S
O165        C174   1.255       .  A
O165       Al172   1.896       .  S
O166       Al172   1.867       .  S
O167        C174   1.259       .  A
O168       Al172   1.794       .  S
O169        C170   1.269       .  A
C170        C715   1.473       .  S
C171        C747   1.470       .  S
C174        C680   1.479   1_565  S
C175        O176   1.265       .  A
C175        C811   1.462       .  S
O177        C192   1.266       .  A
O177       Al185   1.911       .  S
C178        O188   1.272       .  A
C178        O179   1.264       .  A
C178        C648   1.462       .  S
O179       Al181   1.863       .  S
O180        C182   1.257       .  A
O180       Al181   1.913       .  S
Al181       O189   1.885       .  S
Al181       O191   1.885       .  S
Al181       O190   1.784       .  S
C182        O195   1.256       .  A
C182        C635   1.475       .  S
O183        C193   1.256       .  A
O183       Al185   1.891       .  S
O184        C197   1.267       .  A
O184       Al194   1.934       .  S
Al185       O198   1.874       .  S
Al185       O195   1.914       .  S
Al185       O190   1.783       .  S
O186        C193   1.255       .  A
O186       Al194   1.893       .  S
O187        C196   1.258       .  A
O187       Al194   1.923       .  S
O188       Al194   1.938       .  S
O189        C196   1.253       .  A
O190       Al194   1.799       .  S
O191        C192   1.262       .  A
C192        C664   1.447       .  S
C193        C600   1.467       .  S
C196        C955   1.479       .  S
C197        O198   1.257       .  A
C197        C616   1.467       .  S
O199        C214   1.263       .  A
O199       Al207   1.894       .  S
C200        O210   1.269       .  A
C200        O201   1.264       .  A
C200        C552   1.464       .  S
O201       Al203   1.875       .  S
O202        C204   1.258       .  A
O202       Al203   1.902       .  S
Al203       O211   1.863       .  S
Al203       O213   1.902       .  S
Al203       O212   1.784       .  S
C204        O217   1.259       .  A
C204        C568   1.471       .  S
O205        C215   1.253       .  A
O205       Al207   1.878       .  S
O206        C219   1.268       .  A
O206       Al216   1.938       .  S
Al207       O220   1.879       .  S
Al207       O217   1.916       .  S
Al207       O212   1.782       .  S
O208        C215   1.256       .  A
O208       Al216   1.898       .  S
O209        C218   1.262       .  A
O209       Al216   1.937       .  S
O210       Al216   1.928       .  S
O211        C218   1.251       .  A
O212       Al216   1.798       .  S
O213        C214   1.262       .  A
C214        C536   1.461       .  S
C215        C587   1.463       .  S
C218        C731   1.479       .  S
C219        O220   1.259       .  A
C219        C619   1.466       .  S
O221        C236   1.259       .  A
O221       Al229   1.883       .  S
C222        O232   1.259       .  A
C222        O223   1.269       .  A
C222        C539   1.447       .  S
O223       Al225   1.938       .  S
O224        C226   1.260       .  A
O224       Al225   1.908       .  S
Al225       O233   1.926       .  S
Al225       O235   1.937       .  S
Al225       O234   1.790       .  S
C226        O239   1.260       .  A
C226        C504   1.477       .  S
O227        C237   1.258       .  A
O227       Al229   1.907       .  S
O228        C241   1.263       .  A
O228       Al238   1.892       .  S
Al229       O242   1.920       .  S
Al229       O239   1.908       .  S
Al229       O234   1.771       .  S
O230        C237   1.259       .  A
O230       Al238   1.919       .  S
O231        C240   1.258       .  A
O231       Al238   1.903       .  S
O232       Al238   1.862       .  S
O233        C240   1.263       .  A
O234       Al238   1.785       .  S
O235        C236   1.267       .  A
C236        C523   1.472       .  S
C237        C603   1.470       .  S
C240        C840   1.479       .  S
C241        O242   1.267       .  A
C241        C555   1.453       .  S
O243        C258   1.268       .  A
O243       Al251   1.927       .  S
C244        O254   1.268       .  A
C244        O245   1.262       .  A
C244        C475   1.461       .  S
O245       Al247   1.885       .  S
O246        C248   1.262       .  A
O246       Al247   1.919       .  S
Al247       O255   1.938       .  S
Al247       O257   1.914       .  S
Al247       O256   1.787       .  S
C248        O261   1.257       .  A
C248        C571   1.469       .  S
O249        C259   1.263       .  A
O249       Al251   1.929       .  S
O250        C263   1.262       .  A
O250       Al260   1.922       .  S
Al251       O264   1.869       .  S
Al251       O261   1.897       .  S
Al251       O256   1.778       .  S
O252        C259   1.256       .  A
O252       Al260   1.883       .  S
O253        C262   1.257       .  A
O253       Al260   1.892       .  S
O254       Al260   1.924       .  S
O255        C262   1.262       .  A
O256       Al260   1.782       .  S
O257        C258   1.267       .  A
C258        C520   1.467       .  S
C259        C488   1.475       .  S
C262        C683   1.479   1_655  S
C263        O264   1.256       .  A
C263        C456   1.461       .  S
O265        C280   1.258       .  A
O265       Al273   1.886       .  S
C266        O276   1.267       .  A
C266        O267   1.261       .  A
C266        C424   1.476       .  S
O267       Al269   1.899       .  S
O268        C270   1.256       .  A
O268       Al269   1.890       .  S
Al269       O277   1.896       .  S
Al269       O279   1.925       .  S
Al269       O278   1.781       .  S
C270        O283   1.262       .  A
C270        C392   1.468       .  S
O271        C281   1.261       .  A
O271       Al273   1.904       .  S
O272        C285   1.269       .  A
O272       Al282   1.931       .  S
Al273       O286   1.911       .  S
Al273       O283   1.931       .  S
Al273       O278   1.780       .  S
O274        C281   1.266       .  A
O274       Al282   1.933       .  S
O275        C284   1.266       .  A
O275       Al282   1.939       .  S
O276       Al282   1.927       .  S
O277        C284   1.262       .  A
O278       Al282   1.787       .  S
O279        C280   1.263       .  A
C280        C440   1.459       .  S
C281        C491   1.474       .  S
C284       C1035   1.480   1_545  S
C285        O286   1.263       .  A
C285        C408   1.472       .  S
O287        C302   1.262       .  A
O287       Al295   1.912       .  S
C288        O298   1.268       .  A
C288        O289   1.260       .  A
C288        C459   1.465       .  S
O289       Al291   1.866       .  S
O290        C292   1.264       .  A
O290       Al291   1.926       .  S
Al291       O299   1.879       .  S
Al291       O301   1.901       .  S
Al291       O300   1.774       .  S
C292        O305   1.266       .  A
C292        C507   1.476       .  S
O293        C303   1.256       .  A
O293       Al295   1.897       .  S
O294        C307   1.274       .  A
O294       Al304   1.960       .  S
Al295       O308   1.891       .  S
Al295       O305   1.925       .  S
Al295       O300   1.777       .  S
O296        C303   1.259       .  A
O296       Al304   1.918       .  S
O297        C306   1.264       .  A
O297       Al304   1.933       .  S
O298       Al304   1.937       .  S
O299        C306   1.256       .  A
O300       Al304   1.792       .  S
O301        C302   1.258       .  A
C302        C472   1.456       .  S
C303        C376   1.472       .  S
C306        C763   1.478       .  S
C307        O308   1.264       .  A
C307        C411   1.479       .  S
O309        C324   1.259       .  A
O309       Al317   1.878       .  S
C310        O320   1.260       .  A
C310        O311   1.266       .  A
C310        C667   1.461       .  S
O311       Al313   1.925       .  S
O312        C314   1.259       .  A
O312       Al313   1.919       .  S
Al313       O321   1.946       .  S
Al313       O323   1.964       .  S
Al313       O322   1.793       .  S
C314        O327   1.257       .  A
C314        C395   1.473       .  S
O315        C325   1.260       .  A
O315       Al317   1.907       .  S
O316        C329   1.260       .  A
O316       Al326   1.893       .  S
Al317       O330   1.902       .  S
Al317       O327   1.897       .  S
Al317       O322   1.777       .  S
O318        C325   1.260       .  A
O318       Al326   1.911       .  S
O319        C328   1.256       .  A
O319       Al326   1.882       .  S
O320       Al326   1.867       .  S
O321        C328   1.268       .  A
O322       Al326   1.782       .  S
O323        C324   1.274       .  A
C324        C363   1.477       .  S
C325        C584   1.463       .  S
C328        C907   1.485       .  S
C329        O330   1.261       .  A
C329        C651   1.450       .  S
O331        C346   1.262       .  A
O331       Al339   1.910       .  S
C332        O342   1.261       .  A
C332        O333   1.264       .  A
C332        C443   1.471       .  S
O333       Al335   1.913       .  S
O334        C336   1.265       .  A
O334       Al335   1.921       .  S
Al335       O343   1.942       .  S
Al335       O345   1.928       .  S
Al335       O344   1.788       .  S
C336        O349   1.263       .  A
C336        C632   1.476       .  S
O337        C347   1.263       .  A
O337       Al339   1.936       .  S
O338        C351   1.264       .  A
O338       Al348   1.932       .  S
Al339       O352   1.893       .  S
Al339       O349   1.909       .  S
Al339       O344   1.784       .  S
O340        C347   1.256       .  A
O340       Al348   1.889       .  S
O341        C350   1.263       .  A
O341       Al348   1.897       .  S
O342       Al348   1.901       .  S
O343        C350   1.266       .  A
O344       Al348   1.780       .  S
O345        C346   1.268       .  A
C346        C360   1.472       .  S
C347        C379   1.470       .  S
C350        C699   1.483       .  S
C351        O352   1.258       .  A
C351        C427   1.467       .  S
C353        S359   1.710       .  A
C353        C358   1.386       .  A
C353        C354   1.404       .  A
C354        C355   1.405       .  A
C354        H365   1.082       .  S
C355        C364   1.374   1_554  A
C355        C356   1.386   1_554  A
C356        S362   1.715       .  A
C356        C357   1.408       .  A
C357        C358   1.409   1_556  A
C357        H366   1.082       .  S
C358        C361   1.379       .  A
S359        C360   1.722       .  A
C360        C361   1.390       .  A
C361        H367   1.083       .  S
S362        C363   1.726       .  A
C363        C364   1.389       .  A
C364        H368   1.083       .  S
C369        S375   1.716       .  A
C369        C374   1.386       .  A
C369        C370   1.405       .  A
C370        C371   1.407       .  A
C370        H381   1.082       .  S
C371        C380   1.375       .  A
C371        C372   1.387       .  A
C372        S378   1.706       .  A
C372        C373   1.400       .  A
C373        C374   1.401       .  A
C373        H382   1.082       .  S
C374        C377   1.367       .  A
S375        C376   1.723       .  A
C376        C377   1.386       .  A
C377        H383   1.083       .  S
S378        C379   1.721       .  A
C379        C380   1.387       .  A
C380        H384   1.082       .  S
C385        S391   1.705       .  A
C385        C390   1.388       .  A
C385        C386   1.398       .  A
C386        C387   1.400       .  A
C386        H397   1.083       .  S
C387        C396   1.366       .  A
C387        C388   1.386       .  A
C388        S394   1.717       .  A
C388        C389   1.406       .  A
C389        C390   1.408       .  A
C389        H398   1.083       .  S
C390        C393   1.374       .  A
S391        C392   1.719       .  A
C392        C393   1.388       .  A
C393        H399   1.083       .  S
S394        C395   1.725       .  A
C395        C396   1.385       .  A
C396        H400   1.084       .  S
C401        S407   1.707       .  A
C401        C406   1.386       .  A
C401        C402   1.401       .  A
C402        C403   1.402       .  A
C402        H413   1.082       .  S
C403        C412   1.372       .  A
C403        C404   1.386       .  A
C404        S410   1.717       .  A
C404        C405   1.411       .  A
C405        C406   1.411       .  A
C405        H414   1.082       .  S
C406        C409   1.382       .  A
S407        C408   1.720       .  A
C408        C409   1.392       .  A
C409        H415   1.082       .  S
S410        C411   1.728       .  A
C411        C412   1.387       .  A
C412        H416   1.082       .  S
C417        S423   1.718       .  A
C417        C422   1.386       .  A
C417        C418   1.405       .  A
C418        C419   1.407   1_556  A
C418        H429   1.082   1_556  S
C419        C428   1.374       .  A
C419        C420   1.387   1_554  A
C420        S426   1.708   1_556  A
C420        C421   1.400       .  A
C421        C422   1.402       .  A
C421        H430   1.083       .  S
C422        C425   1.366       .  A
S423        C424   1.724       .  A
C424        C425   1.389       .  A
C425        H431   1.083       .  S
S426        C427   1.719       .  A
C427        C428   1.387       .  A
C428        H432   1.083       .  S
C433        S439   1.705       .  A
C433        C438   1.388       .  A
C433        C434   1.396       .  A
C434        C435   1.399       .  A
C434        H445   1.082       .  S
C435        C444   1.363       .  A
C435        C436   1.386       .  A
C436        S442   1.714       .  A
C436        C437   1.404       .  A
C437        C438   1.406       .  A
C437        H446   1.082       .  S
C438        C441   1.371       .  A
S439        C440   1.716       .  A
C440        C441   1.385       .  A
C441        H447   1.082       .  S
S442        C443   1.723       .  A
C443        C444   1.386       .  A
C444        H448   1.083       .  S
C449        S455   1.696       .  A
C449        C454   1.388       .  A
C449        C450   1.393       .  A
C450        C451   1.394       .  A
C450        H461   1.083       .  S
C451        C460   1.359       .  A
C451        C452   1.386       .  A
C452        S458   1.713       .  A
C452        C453   1.405       .  A
C453        C454   1.406       .  A
C453        H462   1.082       .  S
C454        C457   1.372   1_554  A
S455        C456   1.718   1_554  A
C456        C457   1.387       .  A
C457        H463   1.083       .  S
S458        C459   1.724       .  A
C459        C460   1.382       .  A
C460        H464   1.083       .  S
C465        S471   1.711       .  A
C465        C470   1.388       .  A
C465        C466   1.400       .  A
C466        C467   1.402       .  A
C466        H477   1.083       .  S
C467        C476   1.366       .  A
C467        C468   1.388       .  A
C468        S474   1.703       .  A
C468        C469   1.396       .  A
C469        C470   1.398       .  A
C469        H478   1.083       .  S
C470        C473   1.360       .  A
S471        C472   1.718       .  A
C472        C473   1.381       .  A
C473        H479   1.084       .  S
S474        C475   1.719       .  A
C475        C476   1.385       .  A
C476        H480   1.083       .  S
C481        S487   1.706       .  A
C481        C486   1.387       .  A
C481        C482   1.402       .  A
C482        C483   1.402       .  A
C482        H493   1.082       .  S
C483        C492   1.372       .  A
C483        C484   1.386       .  A
C484        S490   1.712       .  A
C484        C485   1.406       .  A
C485        C486   1.406       .  A
C485        H494   1.082       .  S
C486        C489   1.377       .  A
S487        C488   1.723       .  A
C488        C489   1.389       .  A
C489        H495   1.082       .  S
S490        C491   1.724       .  A
C491        C492   1.387       .  A
C492        H496   1.083       .  S
C497        S503   1.709       .  A
C497        C502   1.387       .  A
C497        C498   1.406       .  A
C498        C499   1.405       .  A
C498        H509   1.082       .  S
C499        C508   1.378       .  A
C499        C500   1.387       .  A
C500        S506   1.707       .  A
C500        C501   1.405       .  A
C501        C502   1.404       .  A
C501        H510   1.082       .  S
C502        C505   1.376       .  A
S503        C504   1.725       .  A
C504        C505   1.388       .  A
C505        H511   1.082       .  S
S506        C507   1.725       .  A
C507        C508   1.387       .  A
C508        H512   1.082       .  S
C513        S519   1.705       .  A
C513        C518   1.387       .  A
C513        C514   1.400       .  A
C514        C515   1.401   1_556  A
C514        H525   1.082       .  S
C515        C524   1.370       .  A
C515        C516   1.386       .  A
C516        S522   1.713       .  A
C516        C517   1.407       .  A
C517        C518   1.408   1_554  A
C517        H526   1.082       .  S
C518        C521   1.377       .  A
S519        C520   1.718       .  A
C520        C521   1.388       .  A
C521        H527   1.083       .  S
S522        C523   1.725       .  A
C523        C524   1.386       .  A
C524        H528   1.083       .  S
C529        S535   1.714       .  A
C529        C534   1.386       .  A
C529        C530   1.403       .  A
C530        C531   1.406       .  A
C530        H541   1.083       .  S
C531        C540   1.369       .  A
C531        C532   1.389       .  A
C532        S538   1.694       .  A
C532        C533   1.388       .  A
C533        C534   1.391       .  A
C533        H542   1.083       .  S
C534        C537   1.353       .  A
S535        C536   1.724       .  A
C536        C537   1.380       .  A
C537        H543   1.084       .  S
S538        C539   1.713       .  A
C539        C540   1.384       .  A
C540        H544   1.083       .  S
C545        S551   1.710       .  A
C545        C550   1.387       .  A
C545        C546   1.401       .  A
C546        C547   1.404   1_556  A
C546        H557   1.083       .  S
C547        C556   1.368       .  A
C547        C548   1.388   1_554  A
C548        S554   1.703   1_556  A
C548        C549   1.396       .  A
C549        C550   1.398       .  A
C549        H558   1.083       .  S
C550        C553   1.362       .  A
S551        C552   1.722       .  A
C552        C553   1.383       .  A
C553        H559   1.083       .  S
S554        C555   1.715       .  A
C555        C556   1.384       .  A
C556        H560   1.083       .  S
C561        S567   1.717       .  A
C561        C566   1.386       .  A
C561        C562   1.407       .  A
C562        C563   1.408       .  A
C562        H573   1.082       .  S
C563        C572   1.374       .  A
C563        C564   1.387       .  A
C564        S570   1.699       .  A
C564        C565   1.394       .  A
C565        C566   1.396       .  A
C565        H574   1.082       .  S
C566        C569   1.361       .  A
S567        C568   1.725       .  A
C568        C569   1.384       .  A
C569        H575   1.083       .  S
S570        C571   1.718       .  A
C571        C572   1.390       .  A
C572        H576   1.082       .  S
C577        S583   1.708       .  A
C577        C582   1.387       .  A
C577        C578   1.399       .  A
C578        C579   1.401       .  A
C578        H589   1.082       .  S
C579        C588   1.365       .  A
C579        C580   1.387       .  A
C580        S586   1.709       .  A
C580        C581   1.399       .  A
C581        C582   1.402       .  A
C581        H590   1.082       .  S
C582        C585   1.366       .  A
S583        C584   1.719       .  A
C584        C585   1.386       .  A
C585        H591   1.083       .  S
S586        C587   1.720       .  A
C587        C588   1.385       .  A
C588        H592   1.083       .  S
C593        S599   1.709       .  A
C593        C598   1.387       .  A
C593        C594   1.401       .  A
C594        C595   1.403       .  A
C594        H605   1.082       .  S
C595        C604   1.369       .  A
C595        C596   1.387       .  A
C596        S602   1.709       .  A
C596        C597   1.402       .  A
C597        C598   1.403       .  A
C597        H606   1.082       .  S
C598        C601   1.369       .  A
S599        C600   1.721       .  A
C600        C601   1.386       .  A
C601        H607   1.083       .  S
S602        C603   1.721       .  A
C603        C604   1.387       .  A
C604        H608   1.083       .  S
C609        S615   1.707       .  A
C609        C614   1.387       .  A
C609        C610   1.404       .  A
C610        C611   1.404       .  A
C610        H621   1.083       .  S
C611        C620   1.374       .  A
C611        C612   1.387       .  A
C612        S618   1.707       .  A
C612        C613   1.402       .  A
C613        C614   1.403       .  A
C613        H622   1.083       .  S
C614        C617   1.373       .  A
S615        C616   1.724       .  A
C616        C617   1.385       .  A
C617        H623   1.083       .  S
S618        C619   1.721       .  A
C619        C620   1.387       .  A
C620        H624   1.083       .  S
C625        S631   1.703       .  A
C625        C630   1.387       .  A
C625        C626   1.399       .  A
C626        C627   1.400       .  A
C626        H637   1.082       .  S
C627        C636   1.367       .  A
C627        C628   1.386       .  A
C628        S634   1.716       .  A
C628        C629   1.408       .  A
C629        C630   1.409       .  A
C629        H638   1.082       .  S
C630        C633   1.378       .  A
S631        C632   1.722       .  A
C632        C633   1.391       .  A
C633        H639   1.082       .  S
S634        C635   1.726       .  A
C635        C636   1.386       .  A
C636        H640   1.083       .  S
C641        S647   1.713       .  A
C641        C646   1.386       .  A
C641        C642   1.404       .  A
C642        C643   1.406       .  A
C642        H653   1.083       .  S
C643        C652   1.371   1_554  A
C643        C644   1.389       .  A
C644        S650   1.695       .  A
C644        C645   1.390       .  A
C645        C646   1.392       .  A
C645        H654   1.083       .  S
C646        C649   1.356       .  A
S647        C648   1.724       .  A
C648        C649   1.380       .  A
C649        H655   1.084       .  S
S650        C651   1.713   1_554  A
C651        C652   1.385       .  A
C652        H656   1.083       .  S
C657        S663   1.699       .  A
C657        C662   1.389       .  A
C657        C658   1.393       .  A
C658        C659   1.395       .  A
C658        H669   1.083       .  S
C659        C668   1.358       .  A
C659        C660   1.387       .  A
C660        S666   1.709       .  A
C660        C661   1.400       .  A
C661        C662   1.402       .  A
C661        H670   1.083       .  S
C662        C665   1.367       .  A
S663        C664   1.714       .  A
C664        C665   1.382       .  A
C665        H671   1.084       .  S
S666        C667   1.722       .  A
C667        C668   1.382       .  A
C668        H672   1.083       .  S
C673        S679   1.723       .  A
C673        C678   1.385       .  A
C673        C674   1.411       .  A
C674        C675   1.412       .  A
C674        H685   1.082       .  S
C675        C684   1.380       .  A
C675        C676   1.386       .  A
C676        S682   1.704       .  A
C676        C677   1.399       .  A
C677        C678   1.400       .  A
C677        H686   1.082       .  S
C678        C681   1.367       .  A
S679        C680   1.726       .  A
C680        C681   1.387       .  A
C681        H687   1.083       .  S
S682        C683   1.722       .  A
C683        C684   1.394       .  A
C684        H688   1.082       .  S
C689        S695   1.726       .  A
C689        C694   1.384       .  A
C689        C690   1.413       .  A
C690        C691   1.415       .  A
C690        H701   1.082       .  S
C691        C700   1.383       .  A
C691        C692   1.386       .  A
C692        S698   1.704       .  A
C692        C693   1.398       .  A
C693        C694   1.400       .  A
C693        H702   1.082       .  S
C694        C697   1.366       .  A
S695        C696   1.730       .  A
C696        C697   1.389       .  A
C697        H703   1.083   1_545  S
S698        C699   1.722       .  A
C699        C700   1.396       .  A
C700        H704   1.082       .  S
C705        S711   1.709       .  A
C705        C710   1.387       .  A
C705        C706   1.407       .  A
C706        C707   1.406       .  A
C706        H717   1.083       .  S
C707        C716   1.378       .  A
C707        C708   1.387       .  A
C708        S714   1.709       .  A
C708        C709   1.405       .  A
C709        C710   1.404       .  A
C709        H718   1.082       .  S
C710        C713   1.377       .  A
S711        C712   1.726       .  A
C712        C713   1.387       .  A
C713        H719   1.083       .  S
S714        C715   1.723       .  A
C715        C716   1.389       .  A
C716        H720   1.083       .  S
C721        S727   1.716       .  A
C721        C726   1.386       .  A
C721        C722   1.413       .  A
C722        C723   1.411       .  A
C722        H733   1.082       .  S
C723        C732   1.386       .  A
C723        C724   1.387       .  A
C724        S730   1.690       .  A
C724        C725   1.396       .  A
C725        C726   1.395       .  A
C725        H734   1.082       .  S
C726        C729   1.368       .  A
S727        C728   1.731       .  A
C728        C729   1.383       .  A
C729        H735   1.083       .  S
S730        C731   1.724       .  A
C731        C732   1.393       .  A
C732        H736   1.082       .  S
C737        S743   1.710       .  A
C737        C742   1.387       .  A
C737        C738   1.404       .  A
C738        C739   1.404       .  A
C738        H749   1.081       .  S
C739        C748   1.373       .  A
C739        C740   1.387       .  A
C740        S746   1.702       .  A
C740        C741   1.398       .  A
C741        C742   1.399       .  A
C741        H750   1.081       .  S
C742        C745   1.367       .  A
S743        C744   1.723       .  A
C744        C745   1.385       .  A
C745        H751   1.082       .  S
S746        C747   1.722       .  A
C747        C748   1.387       .  A
C748        H752   1.082       .  S
C753        S759   1.726       .  A
C753        C758   1.384       .  A
C753        C754   1.414       .  A
C754        C755   1.415       .  A
C754        H765   1.081       .  S
C755        C764   1.385       .  A
C755        C756   1.387       .  A
C756        S762   1.695   1_565  A
C756        C757   1.394       .  A
C757        C758   1.395       .  A
C757        H766   1.082       .  S
C758        C761   1.362       .  A
S759        C760   1.729       .  A
C760        C761   1.385       .  A
C761        H767   1.083   1_655  S
S762        C763   1.722       .  A
C763        C764   1.395   1_545  A
C764        H768   1.082       .  S
C769        S775   1.703       .  A
C769        C774   1.387       .  A
C769        C770   1.402       .  A
C770        C771   1.401       .  A
C770        H781   1.082       .  S
C771        C780   1.375       .  A
C771        C772   1.387       .  A
C772        S778   1.710       .  A
C772        C773   1.408       .  A
C773        C774   1.407       .  A
C773        H782   1.082       .  S
C774        C777   1.380       .  A
S775        C776   1.725       .  A
C776        C777   1.390       .  A
C777        H783   1.082       .  S
S778        C779   1.726       .  A
C779        C780   1.384       .  A
C780        H784   1.083       .  S
C785        S791   1.711       .  A
C785        C790   1.386       .  A
C785        C786   1.404   1_455  A
C786        C787   1.405   1_556  A
C786        H797   1.082       .  S
C787        C796   1.374   1_655  A
C787        C788   1.386   1_655  A
C788        S794   1.712       .  A
C788        C789   1.406       .  A
C789        C790   1.407   1_554  A
C789        H798   1.082       .  S
C790        C793   1.377       .  A
S791        C792   1.721       .  A
C792        C793   1.389       .  A
C793        H799   1.083       .  S
S794        C795   1.724       .  A
C795        C796   1.389       .  A
C796        H800   1.083       .  S
C801        S807   1.695       .  A
C801        C806   1.388       .  A
C801        C802   1.390       .  A
C802        C803   1.393       .  A
C802        H813   1.084       .  S
C803        C812   1.356       .  A
C803        C804   1.386       .  A
C804        S810   1.715       .  A
C804        C805   1.406       .  A
C805        C806   1.407       .  A
C805        H814   1.083       .  S
C806        C809   1.373       .  A
S807        C808   1.715       .  A
C808        C809   1.387       .  A
C809        H815   1.083       .  S
S810        C811   1.724       .  A
C811        C812   1.380       .  A
C812        H816   1.084       .  S
C817        S823   1.707   1_556  A
C817        C822   1.388       .  A
C817        C818   1.398       .  A
C818        C819   1.401       .  A
C818        H829   1.083       .  S
C819        C828   1.363       .  A
C819        C820   1.387       .  A
C820        S826   1.708       .  A
C820        C821   1.398       .  A
C821        C822   1.401       .  A
C821        H830   1.082       .  S
C822        C825   1.364   1_556  A
S823        C824   1.717       .  A
C824        C825   1.381       .  A
C825        H831   1.083       .  S
S826        C827   1.719       .  A
C827        C828   1.386       .  A
C828        H832   1.083       .  S
C833        S839   1.720       .  A
C833        C838   1.385       .  A
C833        C834   1.408       .  A
C834        C835   1.410       .  A
C834        H845   1.082       .  S
C835        C844   1.379       .  A
C835        C836   1.386       .  A
C836        S842   1.704       .  A
C836        C837   1.400       .  A
C837        C838   1.401       .  A
C837        H846   1.082       .  S
C838        C841   1.368   1_455  A
S839        C840   1.725   1_455  A
C840        C841   1.388       .  A
C841        H847   1.083       .  S
S842        C843   1.724       .  A
C843        C844   1.392       .  A
C844        H848   1.082       .  S
C849        S855   1.705       .  A
C849        C854   1.388       .  A
C849        C850   1.394       .  A
C850        C851   1.398       .  A
C850        H861   1.084       .  S
C851        C860   1.359       .  A
C851        C852   1.386       .  A
C852        S858   1.719       .  A
C852        C853   1.405       .  A
C853        C854   1.408       .  A
C853        H862   1.083       .  S
C854        C857   1.370       .  A
S855        C856   1.716       .  A
C856        C857   1.387       .  A
C857        H863   1.083       .  S
S858        C859   1.724       .  A
C859        C860   1.384       .  A
C860        H864   1.085       .  S
C865        S871   1.693       .  A
C865        C870   1.388       .  A
C865        C866   1.395       .  A
C866        C867   1.394       .  A
C866        H877   1.083       .  S
C867        C876   1.365       .  A
C867        C868   1.387       .  A
C868        S874   1.711   1_554  A
C868        C869   1.408       .  A
C869        C870   1.407       .  A
C869        H878   1.082       .  S
C870        C873   1.379       .  A
S871        C872   1.720       .  A
C872        C873   1.388       .  A
C873        H879   1.082       .  S
S874        C875   1.725       .  A
C875        C876   1.380   1_556  A
C876        H880   1.083       .  S
C881        S887   1.703       .  A
C881        C886   1.388       .  A
C881        C882   1.399       .  A
C882        C883   1.399       .  A
C882        H893   1.082       .  S
C883        C892   1.368       .  A
C883        C884   1.387       .  A
C884        S890   1.713       .  A
C884        C885   1.406       .  A
C885        C886   1.407       .  A
C885        H894   1.082       .  S
C886        C889   1.376       .  A
S887        C888   1.720       .  A
C888        C889   1.388       .  A
C889        H895   1.082       .  S
S890        C891   1.725       .  A
C891        C892   1.384       .  A
C892        H896   1.083       .  S
C897        S903   1.726       .  A
C897        C902   1.385       .  A
C897        C898   1.416       .  A
C898        C899   1.416       .  A
C898        H909   1.081       .  S
C899        C908   1.390       .  A
C899        C900   1.386       .  A
C900        S906   1.699       .  A
C900        C901   1.399       .  A
C901        C902   1.399       .  A
C901        H910   1.082       .  S
C902        C905   1.369       .  A
S903        C904   1.731       .  A
C904        C905   1.388       .  A
C905        H911   1.083       .  S
S906        C907   1.724       .  A
C907        C908   1.396       .  A
C908        H912   1.082       .  S
C913        S919   1.711       .  A
C913        C918   1.387       .  A
C913        C914   1.406       .  A
C914        C915   1.406       .  A
C914        H925   1.083       .  S
C915        C924   1.379       .  A
C915        C916   1.387       .  A
C916        S922   1.706       .  A
C916        C917   1.403       .  A
C917        C918   1.403       .  A
C917        H926   1.084       .  S
C918        C921   1.374       .  A
S919        C920   1.724       .  A
C920        C921   1.388       .  A
C921        H927   1.084       .  S
S922        C923   1.724       .  A
C923        C924   1.388       .  A
C924        H928   1.083       .  S
C929        S935   1.707       .  A
C929        C934   1.387       .  A
C929        C930   1.403       .  A
C930        C931   1.404       .  A
C930        H941   1.082       .  S
C931        C940   1.372       .  A
C931        C932   1.385       .  A
C932        S938   1.716       .  A
C932        C933   1.408       .  A
C933        C934   1.408       .  A
C933        H942   1.082       .  S
C934        C937   1.380       .  A
S935        C936   1.723       .  A
C936        C937   1.389       .  A
C937        H943   1.082       .  S
S938        C939   1.725       .  A
C939        C940   1.390       .  A
C940        H944   1.083       .  S
C945        S951   1.717       .  A
C945        C950   1.385       .  A
C945        C946   1.412       .  A
C946        C947   1.411       .  A
C946        H957   1.082       .  S
C947        C956   1.383       .  A
C947        C948   1.387       .  A
C948        S954   1.697       .  A
C948        C949   1.397       .  A
C949        C950   1.397       .  A
C949        H958   1.082       .  S
C950        C953   1.367       .  A
S951        C952   1.729       .  A
C952        C953   1.385       .  A
C953        H959   1.083       .  S
S954        C955   1.723       .  A
C955        C956   1.393       .  A
C956        H960   1.082       .  S
C961        S967   1.701   1_556  A
C961        C966   1.388   1_556  A
C961        C962   1.394       .  A
C962        C963   1.397       .  A
C962        H973   1.082       .  S
C963        C972   1.361       .  A
C963        C964   1.385       .  A
C964        S970   1.719       .  A
C964        C965   1.408       .  A
C965        C966   1.410   1_556  A
C965        H974   1.082       .  S
C966        C969   1.375       .  A
S967        C968   1.717       .  A
C968        C969   1.389       .  A
C969        H975   1.082       .  S
S970        C971   1.727       .  A
C971        C972   1.385       .  A
C972        H976   1.083       .  S
C977        S983   1.706       .  A
C977        C982   1.387       .  A
C977        C978   1.398       .  A
C978        C979   1.400       .  A
C978        H989   1.083       .  S
C979        C988   1.365       .  A
C979        C980   1.386       .  A
C980        S986   1.718       .  A
C980        C981   1.406       .  A
C981        C982   1.408       .  A
C981        H990   1.082       .  S
C982        C985   1.375       .  A
S983        C984   1.720       .  A
C984        C985   1.390       .  A
C985        H991   1.083       .  S
S986        C987   1.722       .  A
C987        C988   1.384       .  A
C988        H992   1.083       .  S
C993        S999   1.707       .  A
C993        C998   1.387       .  A
C993        C994   1.401       .  A
C994        C995   1.403       .  A
C994       H1005   1.082       .  S
C995       C1004   1.370       .  A
C995        C996   1.387       .  A
C996       S1002   1.709       .  A
C996        C997   1.402       .  A
C997        C998   1.403       .  A
C997       H1006   1.082       .  S
C998       C1001   1.372       .  A
S999       C1000   1.722       .  A
C1000      C1001   1.385       .  A
C1001      H1007   1.083       .  S
S1002      C1003   1.723       .  A
C1003      C1004   1.387       .  A
C1004      H1008   1.083       .  S
C1009      S1015   1.716       .  A
C1009      C1014   1.386       .  A
C1009      C1010   1.405       .  A
C1010      C1011   1.407       .  A
C1010      H1021   1.081       .  S
C1011      C1020   1.374       .  A
C1011      C1012   1.387       .  A
C1012      S1018   1.704       .  A
C1012      C1013   1.398       .  A
C1013      C1014   1.400       .  A
C1013      H1022   1.081       .  S
C1014      C1017   1.365       .  A
S1015      C1016   1.724       .  A
C1016      C1017   1.386       .  A
C1017      H1023   1.082       .  S
S1018      C1019   1.722       .  A
C1019      C1020   1.389       .  A
C1020      H1024   1.082       .  S
C1025      S1031   1.696       .  A
C1025      C1030   1.386       .  A
C1025      C1026   1.397       .  A
C1026      C1027   1.397       .  A
C1026      H1037   1.083       .  S
C1027      C1036   1.369   1_565  A
C1027      C1028   1.385       .  A
C1028      S1034   1.720       .  A
C1028      C1029   1.414       .  A
C1029      C1030   1.413       .  A
C1029      H1038   1.082       .  S
C1030      C1033   1.387       .  A
S1031      C1032   1.725       .  A
C1032      C1033   1.395       .  A
C1033      H1039   1.082       .  S
S1034      C1035   1.730       .  A
C1035      C1036   1.385   1_565  A
C1036      H1040   1.083       .  S
C1041      S1047   1.713       .  A
C1041      C1046   1.387       .  A
C1041      C1042   1.402       .  A
C1042      C1043   1.405       .  A
C1042      H1053   1.084       .  S
C1043      C1052   1.368       .  A
C1043      C1044   1.387       .  A
C1044      S1050   1.710       .  A
C1044      C1045   1.399       .  A
C1045      C1046   1.402       .  A
C1045      H1054   1.084       .  S
C1046      C1049   1.366       .  A
S1047      C1048   1.723       .  A
C1048      C1049   1.386       .  A
C1049      H1055   1.084       .  S
S1050      C1051   1.719       .  A
C1051      C1052   1.387       .  A
C1052      H1056   1.084       .  S
C1057      S1063   1.718       .  A
C1057      C1062   1.386       .  A
C1057      C1058   1.411   1_554  A
C1058      C1059   1.411       .  A
C1058      H1069   1.082       .  S
C1059      C1068   1.383       .  A
C1059      C1060   1.387   1_556  A
C1060      S1066   1.703   1_554  A
C1060      C1061   1.401       .  A
C1061      C1062   1.401       .  A
C1061      H1070   1.083       .  S
C1062      C1065   1.372       .  A
S1063      C1064   1.726       .  A
C1064      C1065   1.386       .  A
C1065      H1071   1.083       .  S
S1066      C1067   1.722       .  A
C1067      C1068   1.392       .  A
C1068      H1072   1.083       .  S
C1073      S1079   1.705       .  A
C1073      C1078   1.387       .  A
C1073      C1074   1.398       .  A
C1074      C1075   1.400       .  A
C1074      H1085   1.082       .  S
C1075      C1084   1.366       .  A
C1075      C1076   1.386       .  A
C1076      S1082   1.713       .  A
C1076      C1077   1.404       .  A
C1077      C1078   1.405       .  A
C1077      H1086   1.082       .  S
C1078      C1081   1.372       .  A
S1079      C1080   1.718       .  A
C1080      C1081   1.387       .  A
C1081      H1087   1.083       .  S
S1082      C1083   1.723       .  A
C1083      C1084   1.386       .  A
C1084      H1088   1.083       .  S
C1089      S1095   1.687       .  A
C1089      C1094   1.389       .  A
C1089      C1090   1.387       .  A
C1090      C1091   1.389       .  A
C1090      H1101   1.085       .  S
C1091      C1100   1.353       .  A
C1091      C1092   1.387       .  A
C1092      S1098   1.715       .  A
C1092      C1093   1.406       .  A
C1093      C1094   1.406       .  A
C1093      H1102   1.083       .  S
C1094      C1097   1.374       .  A
S1095      C1096   1.717       .  A
C1096      C1097   1.385       .  A
C1097      H1103   1.083       .  S
S1098      C1099   1.723       .  A
C1099      C1100   1.378       .  A
C1100      H1104   1.085       .  S
C1105      S1111   1.712   1_554  A
C1105      C1110   1.387       .  A
C1105      C1106   1.402       .  A
C1106      C1107   1.404       .  A
C1106      H1117   1.083       .  S
C1107      C1116   1.369       .  A
C1107      C1108   1.389       .  A
C1108      S1114   1.700       .  A
C1108      C1109   1.394       .  A
C1109      C1110   1.396       .  A
C1109      H1118   1.083       .  S
C1110      C1113   1.359   1_554  A
S1111      C1112   1.722       .  A
C1112      C1113   1.383       .  A
C1113      H1119   1.084       .  S
S1114      C1115   1.714       .  A
C1115      C1116   1.383       .  A
C1116      H1120   1.083       .  S
