geometry optimzed in LAMMPS
_audit_creation_date              2020-11-30 
_audit_creation_method            'lammps2cif' 
_symmetry_space_group_name_H-M    'P1' 
_symmetry_Int_Tables_number       1 
_symmetry_cell_setting            triclinic 
loop_ 
_symmetry_equiv_pos_as_xyz 
  x,y,z 
_cell_length_a                    44.17155224 
_cell_length_b                    44.06763809047241 
_cell_length_c                    78.60167147914686 
_cell_angle_alpha                 89.52508920921689 
_cell_angle_beta                  90.29576112272971 
_cell_angle_gamma                 120.15942488886455 
loop_ 
_atom_site_label 
_atom_site_type_symbol 
_atom_site_fract_x 
_atom_site_fract_y 
_atom_site_fract_z 
_atom_site_charge 
Zr1        Zr  0.60256556  0.75561276  0.62990585     2.17500
O2          O  0.56596534  0.71262350  0.65141345    -0.51800
O3          O  0.55870890  0.77293732  0.62489265    -0.75000
O4          O  0.60756649  0.78133696  0.65806416    -0.81700
O5          O  0.57300504  0.68021452  0.59807505    -0.83500
O6          O  0.65980954  0.83194553  0.65990206    -0.79100
O7          O  0.55755127  0.69668902  0.62236354    -0.90800
O8          O  0.57683865  0.81157969  0.60285125    -0.76700
O9          O  0.63264539  0.81627034  0.62265556    -0.86200
O10         O  0.60068967  0.75798746  0.59956738    -0.85900
O11         O  0.66054194  0.77750842  0.64114512    -0.72700
O12         O  0.63080095  0.72487705  0.61933086    -0.84800
Zr13       Zr  0.71833367  0.81263778  0.59287234     2.26400
Zr14       Zr  0.69079746  0.83850576  0.63340292     2.06300
Zr15       Zr  0.62997004  0.72857860  0.58888442     2.10000
Zr16       Zr  0.63140952  0.81857844  0.59238285     1.78800
O17         O  0.62802105  0.67254060  0.58687704    -0.93600
O18         O  0.64206123  0.87806599  0.59584902    -0.41400
O19         O  0.66056704  0.78954647  0.58120039    -0.78000
O20         O  0.68989683  0.84325359  0.60301430    -0.96700
O21         O  0.71993438  0.80915872  0.62302357    -0.90000
O22         O  0.68792102  0.75171388  0.59983801    -0.92900
C23         C  0.55493109  0.79362228  0.61459879     1.00900
C24         C  0.55199300  0.67444512  0.61058576     1.13800
C25         C  0.63038264  0.80856435  0.66622559     1.04600
O26         O  0.68787400  0.89167095  0.63750659    -0.95000
O27         O  0.74728954  0.88678599  0.62443299    -0.90800
O28         O  0.76576074  0.87005756  0.60124800    -0.83900
C29         C  0.76991120  0.89226798  0.61282114     1.11200
O30         O  0.66002146  0.70501373  0.65244525    -0.97000
Zr31       Zr  0.68932041  0.74840196  0.62992267     1.88900
O32         O  0.76551599  0.80157159  0.59974132    -0.73600
O33         O  0.73268499  0.85211354  0.65646283    -0.52900
O34         O  0.72164249  0.76809134  0.65657946    -0.97600
O35         O  0.68663862  0.69296387  0.62370543    -0.54800
O36         O  0.74903326  0.76476538  0.62253580    -0.74200
C37         C  0.77129232  0.78402134  0.61112311     0.98200
O38         O  0.74437898  0.85236818  0.56863790    -0.63000
O39         O  0.59322287  0.71779535  0.56386062    -0.57800
O40         O  0.72007760  0.78216597  0.56770787    -0.94500
O41         O  0.66715453  0.73256209  0.56462234    -0.92900
O42         O  0.59122076  0.79368234  0.56847416    -0.93200
O43         O  0.65424973  0.85460167  0.56681967    -0.92000
C44         C  0.69889315  0.75391721  0.55978160     1.17000
H45         H  0.57683230  0.74687292  0.59549988     0.33000
H46         H  0.70277516  0.86756523  0.59950382     0.43800
H47         H  0.69919659  0.73996631  0.59489020     0.37300
H48         H  0.66008354  0.77446337  0.65332908     0.33800
H49         H  0.62135617  0.87772285  0.59073302     0.25600
H50         H  0.73302547  0.87183283  0.66258242     0.31600
H51         H  0.73729441  0.75806112  0.65668907     0.37500
H52         H  0.57992992  0.80815542  0.56745829     0.31900
H53         H  0.60589243  0.73950719  0.55695294     0.30800
H54         H  0.61718428  0.66310248  0.57566576     0.32500
H55         H  0.70236096  0.69786904  0.61386020     0.31500
H56         H  0.67996496  0.86764418  0.56841653     0.35400
H57         H  0.72727664  0.84156198  0.55925105     0.28200
H58         H  0.55138052  0.72155854  0.65635424     0.32400
H59         H  0.67732804  0.69856273  0.65648920     0.35300
H60         H  0.59544693  0.69988781  0.55733105     0.27900
H61         H  0.74307169  0.87351001  0.57152530     0.40700
H62         H  0.70520224  0.90452728  0.64657969     0.30800
H63         H  0.63962769  0.88030587  0.60822142     0.38400
H64         H  0.66280428  0.67782892  0.61907839     0.30300
H65         H  0.72110391  0.83193636  0.66441519     0.30300
H66         H  0.58212064  0.71442434  0.66064654     0.30600
Zr67       Zr  0.82488632  0.57888471  0.36306842     2.17500
O68         O  0.78448065  0.54643284  0.34002301    -0.51800
O69         O  0.84071280  0.53355805  0.36754375    -0.75000
O70         O  0.85420033  0.58809567  0.33571296    -0.81700
O71         O  0.74934979  0.54015368  0.39463233    -0.83500
O72         O  0.90280572  0.64219169  0.33553318    -0.79100
O73         O  0.76666346  0.53082520  0.36900176    -0.90800
O74         O  0.87689311  0.54911348  0.39042192    -0.76700
O75         O  0.88467176  0.60893501  0.37143828    -0.86200
O76         O  0.82521834  0.57237038  0.39315403    -0.85900
O77         O  0.84614703  0.63855947  0.35400718    -0.72700
O78         O  0.79225380  0.60463127  0.37420143    -0.84800
Zr79       Zr  0.87520329  0.68826412  0.40489165     2.26400
Zr80       Zr  0.90600726  0.66850175  0.36306591     2.06300
Zr81       Zr  0.79323548  0.59816550  0.40440461     2.10000
Zr82       Zr  0.88485904  0.60347428  0.40159193     1.78800
O83         O  0.73433626  0.58963457  0.40463292    -0.93600
O84         O  0.94391936  0.61472991  0.39613358    -0.41400
O85         O  0.85285048  0.62860009  0.41385250    -0.78000
O86         O  0.90820979  0.66337937  0.39339637    -0.96700
O87         O  0.87504568  0.69486022  0.37479823    -0.90000
O88         O  0.81547908  0.65788847  0.39608395    -0.92900
C89         C  0.85983576  0.52834224  0.37821747     1.00900
C90         C  0.74475089  0.52160030  0.38129835     1.13800
C91         C  0.88125534  0.61309091  0.32833238     1.04600
O92         O  0.96046031  0.66749093  0.36096666    -0.95000
O93         O  0.95058472  0.72508176  0.37327855    -0.90800
O94         O  0.93273653  0.73810696  0.39788461    -0.83900
C95         C  0.95502765  0.74540178  0.38581271     1.11200
O96         O  0.77542355  0.64069581  0.34222317    -0.97000
Zr97       Zr  0.81562755  0.66516843  0.36621961     1.88900
O98         O  0.86430042  0.73604231  0.39987666    -0.73600
O99         O  0.92188118  0.71319968  0.34102949    -0.52900
O100        O  0.84040038  0.70497209  0.34198239    -0.97600
O101        O  0.75847906  0.65912247  0.37142084    -0.54800
O102        O  0.82932264  0.72288655  0.37661328    -0.74200
C103        C  0.84730953  0.74329734  0.38887071     0.98200
O104        O  0.91160267  0.70895065  0.43034350    -0.63000
O105        O  0.78387745  0.56200780  0.42960884    -0.57800
O106        O  0.83939342  0.68423211  0.42955555    -0.94500
O107        O  0.79045918  0.63021092  0.42885852    -0.92900
O108        O  0.86139376  0.56301071  0.42563219    -0.93200
O109        O  0.92325826  0.62503017  0.42630075    -0.92000
C110        C  0.80942902  0.66068289  0.43550327     1.17000
H111        H  0.81449399  0.54796870  0.39644148     0.33000
H112        H  0.93214866  0.67634859  0.39732475     0.43800
H113        H  0.80229997  0.66745355  0.40122771     0.37300
H114        H  0.84435654  0.63996529  0.34181516     0.33800
H115        H  0.94384218  0.59336036  0.40018813     0.25600
H116        H  0.94144141  0.71353991  0.33476743     0.31600
H117        H  0.82734279  0.71779453  0.34142583     0.37500
H118        H  0.87166761  0.54765439  0.42461982     0.31900
H119        H  0.75827950  0.54984182  0.43154851     0.30800
H120        H  0.72619651  0.58294513  0.41651103     0.32500
H121        H  0.76204010  0.67495284  0.38103518     0.31500
H122        H  0.91791088  0.64212773  0.43156755     0.35400
H123        H  0.89967149  0.68970332  0.43876526     0.28200
H124        H  0.79297088  0.53136715  0.33519734     0.32400
H125        H  0.77118004  0.65959166  0.33819911     0.35300
H126        H  0.78840022  0.54328702  0.42581892     0.27900
H127        H  0.93312072  0.70845382  0.42739900     0.40700
H128        H  0.97328121  0.68379727  0.35147606     0.30800
H129        H  0.94545961  0.61396869  0.38359839     0.38400
H130        H  0.74423494  0.63521135  0.37624997     0.30300
H131        H  0.90201890  0.70312030  0.33292405     0.30300
H132        H  0.78863283  0.56397953  0.33103336     0.30600
Zr133      Zr  0.40669053  0.15913520  0.37139461     2.17500
O134        O  0.43551023  0.14684417  0.34826104    -0.51800
O135        O  0.45274914  0.21991118  0.37529338    -0.75000
O136        O  0.39897074  0.18107092  0.34394091    -0.81700
O137        O  0.44252460  0.11781317  0.40291068    -0.83500
O138        O  0.34625964  0.17836435  0.34396961    -0.79100
O139        O  0.45479549  0.14961047  0.37837375    -0.90800
O140        O  0.43870601  0.24000032  0.39870854    -0.76700
O141        O  0.37701190  0.18945342  0.37918258    -0.86200
O142        O  0.41248018  0.16558536  0.40151850    -0.85900
O143        O  0.34723551  0.12174086  0.36233731    -0.72700
O144        O  0.38076022  0.10080689  0.38315983    -0.84800
Zr145      Zr  0.29665779  0.10154678  0.41256509     2.26400
Zr146      Zr  0.31744971  0.15207645  0.37073901     2.06300
Zr147      Zr  0.38600394  0.10773726  0.41343455     2.10000
Zr148      Zr  0.38235893  0.19527476  0.40928654     1.78800
O149        O  0.38881683  0.05419420  0.41655428    -0.93600
O150        O  0.37628078  0.24616313  0.40287782    -0.41400
O151        O  0.35603987  0.13785781  0.42188972    -0.78000
O152        O  0.32245087  0.15980055  0.40093615    -0.96700
O153        O  0.29077359  0.09430672  0.38257565    -0.90000
O154        O  0.32650779  0.07131208  0.40478195    -0.92900
C155        C  0.45903103  0.24379987  0.38628711     1.00900
C156        C  0.46242984  0.13411694  0.39011841     1.13800
C157        C  0.37499753  0.18513844  0.33673038     1.04600
O158        O  0.31673625  0.20696262  0.36986911    -0.95000
O159        O  0.25917987  0.13787201  0.37964758    -0.90800
O160        O  0.24762091  0.10986981  0.40525760    -0.83900
C161        C  0.23948751  0.12320061  0.39264873     1.11200
O162        O  0.34492678  0.04841458  0.35104177    -0.97000
Zr163      Zr  0.32077477  0.06443757  0.37487217     1.88900
O164        O  0.24891359  0.04250781  0.40769638    -0.73600
O165        O  0.27644359  0.12602730  0.34714908    -0.52900
O166        O  0.28408175  0.04874522  0.34952793    -0.97600
O167        O  0.32874373  0.01490584  0.38192610    -0.54800
O168        O  0.26291795  0.02052651  0.38495382    -0.74200
C169        C  0.24208477  0.01816701  0.39691858     0.98200
O170        O  0.27481664  0.11673797  0.43765136    -0.63000
O171        O  0.42695218  0.13832967  0.43648275    -0.57800
O172        O  0.29966551  0.07167626  0.43811049    -0.94500
O173        O  0.35346762  0.07666409  0.43918935    -0.92900
O174        O  0.42069888  0.21226925  0.43403834    -0.93200
O175        O  0.35852679  0.21136109  0.43318136    -0.92000
C176        C  0.32264842  0.06607630  0.44529438     1.17000
H177        H  0.43676432  0.17892197  0.40489055     0.33000
H178        H  0.30965206  0.17100078  0.40464856     0.43800
H179        H  0.31630448  0.04860181  0.41025976     0.37300
H180        H  0.34615336  0.11883630  0.35014844     0.33800
H181        H  0.39421234  0.26518946  0.41001267     0.25600
H182        H  0.27632960  0.14598209  0.34132182     0.31600
H183        H  0.26364847  0.05080858  0.35293764     0.37500
H184        H  0.43427008  0.23823901  0.43359332     0.31900
H185        H  0.41364943  0.14436320  0.44453390     0.30800
H186        H  0.40401861  0.05835120  0.42659154     0.32500
H187        H  0.31195409  0.00212219  0.39121543     0.31500
H188        H  0.34922377  0.19088150  0.44098482     0.35400
H189        H  0.29421478  0.12548033  0.44600871     0.28200
H190        H  0.45075442  0.16969044  0.34258273     0.32400
H191        H  0.32760819  0.02361812  0.34851841     0.35300
H192        H  0.42958844  0.11988612  0.44242102     0.27900
H193        H  0.27392689  0.13799667  0.43432536     0.40700
H194        H  0.34006147  0.22453572  0.36543757     0.30800
H195        H  0.38510475  0.25303876  0.39110426     0.38400
H196        H  0.35203591  0.02558179  0.38743867     0.30300
H197        H  0.28801845  0.11799913  0.33905039     0.30300
H198        H  0.41675889  0.13302537  0.33992050     0.30600
Zr199      Zr  0.19616216  0.77214819  0.64497902     2.17500
O200        O  0.23755678  0.77730904  0.66704273    -0.51800
O201        O  0.17839291  0.71090889  0.63946637    -0.75000
O202        O  0.16814916  0.74932161  0.67255938    -0.81700
O203        O  0.27144618  0.81497464  0.61275298    -0.83500
O204        O  0.11762504  0.75096718  0.67313347    -0.79100
O205        O  0.25375965  0.78254129  0.63709883    -0.90800
O206        O  0.14401630  0.69459629  0.61593515    -0.76700
O207        O  0.13607255  0.74316080  0.63686473    -0.86200
O208        O  0.19508587  0.76968859  0.61468651    -0.85900
O209        O  0.17469822  0.80875780  0.65593264    -0.72700
O210        O  0.22879156  0.83216445  0.63521702    -0.84800
Zr211      Zr  0.14372568  0.83630490  0.60727174     2.26400
Zr212      Zr  0.11443696  0.77951282  0.64723756     2.06300
Zr213      Zr  0.22647807  0.82917329  0.60480527     2.10000
Zr214      Zr  0.13537489  0.74195388  0.60657917     1.78800
O215        O  0.28378130  0.88216753  0.60473847    -0.93600
O216        O  0.07675950  0.69122179  0.60996812    -0.41400
O217        O  0.16636945  0.80106175  0.59610330    -0.78000
O218        O  0.11157564  0.77646076  0.61685818    -0.96700
O219        O  0.14547813  0.83892865  0.63748865    -0.90000
O220        O  0.20414919  0.86504414  0.61513082    -0.92900
C221        C  0.15973283  0.68842609  0.62804469     1.00900
C222        C  0.27582392  0.79796780  0.62498739     1.13800
C223        C  0.14009690  0.74429510  0.67998873     1.04600
O224        O  0.05977180  0.72359101  0.64748700    -0.95000
O225        O  0.06838639  0.79106669  0.63870954    -0.90800
O226        O  0.08543427  0.82547451  0.61497384    -0.83900
C227        C  0.06309194  0.80790101  0.62675319     1.11200
O228        O  0.24768039  0.88090446  0.66817643    -0.97000
Zr229      Zr  0.20555870  0.86770776  0.64523319     1.88900
O230        O  0.15455080  0.89418907  0.61478570    -0.73600
O231        O  0.09747589  0.80268936  0.67112789    -0.52900
O232        O  0.18536236  0.88094361  0.67142131    -0.97600
O233        O  0.26209109  0.91983633  0.63939418    -0.54800
O234        O  0.19008803  0.91203189  0.63795691    -0.74200
C235        C  0.17154269  0.91633770  0.62658915     0.98200
O236        O  0.10545392  0.82442621  0.58268158    -0.63000
O237        O  0.23848928  0.80650753  0.57910756    -0.57800
O238        O  0.17694568  0.86896664  0.58225071    -0.94500
O239        O  0.22528877  0.86331080  0.58050212    -0.92900
O240        O  0.16104970  0.73168069  0.58150266    -0.93200
O241        O  0.09702441  0.72818421  0.58197223    -0.92000
C242        C  0.20549730  0.87492843  0.57498016     1.17000
H243        H  0.20573132  0.75662015  0.61060071     0.33000
H244        H  0.08758172  0.76576636  0.61305389     0.43800
H245        H  0.21692087  0.88845186  0.61038705     0.37300
H246        H  0.17664289  0.81029181  0.66817024     0.33800
H247        H  0.07878077  0.67701043  0.61924813     0.25600
H248        H  0.07526004  0.78263227  0.67534123     0.31600
H249        H  0.16075834  0.87435011  0.66910357     0.37500
H250        H  0.14510210  0.70672154  0.57865166     0.31900
H251        H  0.26366875  0.82266967  0.57680962     0.30800
H252        H  0.29346520  0.88282369  0.59332207     0.32500
H253        H  0.25686276  0.93531718  0.63230915     0.31500
H254        H  0.10475729  0.75114678  0.57638582     0.35400
H255        H  0.11715894  0.81978780  0.57317596     0.28200
H256        H  0.22833377  0.75336293  0.67178009     0.32400
H257        H  0.25357829  0.90436823  0.67239111     0.35300
H258        H  0.23711468  0.78424460  0.58265758     0.27900
H259        H  0.08462300  0.80120637  0.58505736     0.40700
H260        H  0.04909263  0.72273870  0.65865308     0.30800
H261        H  0.06272127  0.70070484  0.61497006     0.38400
H262        H  0.27403370  0.91174181  0.63158473     0.30300
H263        H  0.11474766  0.80701210  0.68022441     0.30300
H264        H  0.23497892  0.79095755  0.67629508     0.30600
Zr265      Zr  0.18251584  0.34992933  0.64372995     2.17500
O266        O  0.17909991  0.38626734  0.66607079    -0.51800
O267        O  0.24380764  0.39326299  0.63881784    -0.75000
O268        O  0.20289833  0.34148077  0.67136913    -0.81700
O269        O  0.14230862  0.38702073  0.61202956    -0.83500
O270        O  0.19548532  0.28669062  0.67234048    -0.79100
O271        O  0.17206231  0.39748427  0.63697102    -0.90800
O272        O  0.26286685  0.37508590  0.61651509    -0.76700
O273        O  0.20970119  0.31708664  0.63622111    -0.86200
O274        O  0.18853509  0.35433266  0.61353393    -0.85900
O275        O  0.14240686  0.29156597  0.65379896    -0.72700
O276        O  0.12441740  0.32659981  0.63238936    -0.84800
Zr277      Zr  0.11816070  0.23766959  0.60440209     2.26400
Zr278      Zr  0.16964544  0.25858221  0.64557394     2.06300
Zr279      Zr  0.13075442  0.32988344  0.60206313     2.10000
Zr280      Zr  0.21458488  0.32057524  0.60601645     1.81200
O281        O  0.07883046  0.33521611  0.59850303    -0.93600
O282        O  0.26114158  0.30705796  0.61048600    -0.41400
O283        O  0.15705203  0.29607888  0.59407635    -0.78000
O284        O  0.17647633  0.26140575  0.61533603    -0.96700
O285        O  0.11171715  0.23411903  0.63445191    -0.90000
O286        O  0.09145303  0.27132009  0.61156478    -0.92900
C287        C  0.26756220  0.39711109  0.62823392     1.00900
C288        C  0.15754167  0.40598654  0.62514465     1.13800
C289        C  0.20479160  0.31658502  0.67901616     1.04600
O290        O  0.22476127  0.25860099  0.64644504    -0.95000
O291        O  0.15373623  0.19967826  0.63729307    -0.90800
O292        O  0.12239770  0.18642526  0.61275227    -0.83900
C293        C  0.13681761  0.17882436  0.62505486     1.11200
O294        O  0.07225417  0.29586591  0.66476519    -0.97000
Zr295      Zr  0.08517229  0.26765925  0.64158746     1.88900
O296        O  0.05764466  0.19379714  0.60952385    -0.73600
O297        O  0.14345284  0.21548338  0.66846305    -0.52900
O298        O  0.06647315  0.23176687  0.66734835    -0.97600
O299        O  0.03824548  0.27944584  0.63443411    -0.54800
O300        O  0.03846325  0.21036844  0.63243190    -0.74200
C301        C  0.03414303  0.18879048  0.62048873     0.98200
O302        O  0.12909633  0.20974142  0.58035719    -0.63000
O303        O  0.16270429  0.36990836  0.57875077    -0.57800
O304        O  0.09098590  0.24249498  0.57839389    -0.94500
O305        O  0.10106531  0.29836856  0.57617205    -0.92900
O306        O  0.23499174  0.36096227  0.58186943    -0.93200
O307        O  0.22510971  0.29617049  0.58055016    -0.92000
C308        C  0.08857352  0.26691453  0.57057932     1.17000
H309        H  0.20286886  0.37845583  0.60988546     0.33000
H310        H  0.18620068  0.24714262  0.61179758     0.43800
H311        H  0.06891344  0.26222998  0.60612383     0.37300
H312        H  0.13972607  0.29119458  0.66599417     0.33800
H313        H  0.28210900  0.32705804  0.60526321     0.25600
H314        H  0.16348181  0.21718180  0.67498769     0.31600
H315        H  0.06858082  0.21101386  0.66462102     0.37500
H316        H  0.26079969  0.37178608  0.58202392     0.31900
H317        H  0.17170715  0.35732876  0.57194526     0.30800
H318        H  0.08374235  0.35032935  0.58831091     0.32500
H319        H  0.02403876  0.26198950  0.62567048     0.31500
H320        H  0.20959825  0.27047355  0.58174735     0.35400
H321        H  0.13830317  0.22777095  0.57123130     0.28200
H322        H  0.20287515  0.39950823  0.67106437     0.32400
H323        H  0.04727567  0.27997075  0.66759752     0.35300
H324        H  0.14440205  0.37008554  0.57149644     0.27900
H325        H  0.14960771  0.20763758  0.58371344     0.40700
H326        H  0.22430955  0.24522123  0.63629376     0.30800
H327        H  0.26585003  0.30994597  0.62286370     0.38400
H328        H  0.04999242  0.30216421  0.62825778     0.30300
H329        H  0.13270049  0.22517216  0.67610778     0.30300
H330        H  0.16429068  0.36973545  0.67510701     0.30600
Zr331      Zr  0.82222519  0.16104155  0.36478699     2.17500
O332        O  0.82846466  0.20251859  0.34239666    -0.51800
O333        O  0.76088003  0.14244590  0.37033403    -0.75000
O334        O  0.80004187  0.13319798  0.33734701    -0.81700
O335        O  0.86536943  0.23819524  0.39553209    -0.83500
O336        O  0.80601066  0.08507386  0.33580480    -0.79100
O337        O  0.83098513  0.21803486  0.37197146    -0.90800
O338        O  0.74301271  0.10534540  0.39303034    -0.76700
O339        O  0.79503636  0.10056496  0.37213347    -0.86200
O340        O  0.81746411  0.15839786  0.39498545    -0.85900
O341        O  0.86156540  0.14288765  0.35416656    -0.72700
O342        O  0.88107709  0.19549281  0.37537586    -0.84800
Zr343      Zr  0.88708554  0.11137551  0.40328507     2.26400
Zr344      Zr  0.83422275  0.08221575  0.36203522     2.06300
Zr345      Zr  0.87586041  0.19176097  0.40566164     2.10000
Zr346      Zr  0.79119795  0.09803232  0.40237250     1.78800
O347        O  0.93105744  0.24669711  0.40846958    -0.93600
O348        O  0.74322205  0.03893592  0.39669526    -0.41400
O349        O  0.84910437  0.13122580  0.41380581    -0.78000
O350        O  0.82851506  0.07724759  0.39239976    -0.96700
O351        O  0.89231557  0.11488429  0.37311880    -0.90000
O352        O  0.91428943  0.17213615  0.39597120    -0.92900
C353        C  0.73767876  0.12247416  0.38127712     1.00900
C354        C  0.84774252  0.24144577  0.38327898     1.13800
C355        C  0.79700644  0.10637556  0.32947792     1.04600
O356        O  0.78112195  0.02501980  0.36012541    -0.95000
O357        O  0.84973935  0.03877334  0.37043858    -0.90800
O358        O  0.88134953  0.05533200  0.39496890    -0.83900
C359        C  0.86640278  0.03386775  0.38259103     1.11200
O360        O  0.93122075  0.21557493  0.34206896    -0.97000
Zr361      Zr  0.91940561  0.17532638  0.36588194     1.88900
O362        O  0.94684688  0.12693048  0.39724327    -0.73600
O363        O  0.86287715  0.07207329  0.33813802    -0.52900
O364        O  0.93713081  0.15737370  0.34034738    -0.97600
O365        O  0.96760479  0.23399852  0.37225362    -0.54800
O366        O  0.96605959  0.16440624  0.37465849    -0.74200
C367        C  0.97017040  0.14595398  0.38620626     0.98200
O368        O  0.87551189  0.07193694  0.42749600    -0.63000
O369        O  0.84767116  0.20555177  0.42846444    -0.57800
O370        O  0.91499947  0.14314591  0.42939206    -0.94500
O371        O  0.90214311  0.18688777  0.43209189    -0.92900
O372        O  0.77382738  0.11607320  0.42801954    -0.93200
O373        O  0.78047355  0.05875358  0.42644833    -0.92000
C374        C  0.91553745  0.16861874  0.43756187     1.17000
H375        H  0.80349572  0.16821412  0.39886117     0.33000
H376        H  0.81853854  0.05300938  0.39586755     0.43800
H377        H  0.93700159  0.18534623  0.40128669     0.37300
H378        H  0.86367212  0.14560985  0.34195532     0.33800
H379        H  0.72299010  0.03719447  0.40294232     0.25600
H380        H  0.84408117  0.05095191  0.33247625     0.31600
H381        H  0.93182158  0.13312287  0.34281040     0.37500
H382        H  0.76868734  0.13450254  0.42424379     0.31900
H383        H  0.83788501  0.18478314  0.43609128     0.30800
H384        H  0.92724542  0.25891816  0.41801150     0.32500
H385        H  0.97972877  0.23103059  0.38220142     0.31500
H386        H  0.80206649  0.07074402  0.43340341     0.35400
H387        H  0.86614213  0.08060006  0.43646393     0.28200
H388        H  0.80457375  0.19400193  0.33788107     0.32400
H389        H  0.95611049  0.22483825  0.33907734     0.35300
H390        H  0.86718790  0.22437908  0.43501759     0.27900
H391        H  0.85502354  0.04926885  0.42412412     0.40700
H392        H  0.76383710  0.02941629  0.35420843     0.30800
H393        H  0.73737534  0.03931600  0.38454587     0.38400
H394        H  0.95617974  0.24669224  0.37672373     0.30300
H395        H  0.86854846  0.09155054  0.33004568     0.30300
H396        H  0.84140443  0.19909394  0.33305908     0.30600
Zr397      Zr  0.73037939  0.82557832  0.89812860     2.17500
O398        O  0.75499746  0.86394391  0.92265896    -0.51800
O399        O  0.77958459  0.81718069  0.89334798    -0.75000
O400        O  0.72871635  0.79217303  0.92338894    -0.81700
O401        O  0.75992677  0.90208420  0.86719923    -0.83500
O402        O  0.67659191  0.74103352  0.92401466    -0.79100
O403        O  0.77548660  0.88563652  0.89170315    -0.90800
O404        O  0.76664768  0.77994896  0.87119955    -0.76700
O405        O  0.70299783  0.76541096  0.89034992    -0.86200
O406        O  0.73586465  0.82540441  0.86799228    -0.85900
O407        O  0.67104771  0.79967487  0.90783356    -0.72700
O408        O  0.70192014  0.85550021  0.88678589    -0.84800
Zr409      Zr  0.61887354  0.76785439  0.85779809     2.26400
Zr410      Zr  0.64316595  0.73956588  0.89900299     2.06300
Zr411      Zr  0.70578657  0.85342375  0.85650509     2.10000
Zr412      Zr  0.70867838  0.76534137  0.86038698     1.78800
O413        O  0.70015333  0.90547929  0.85388106    -0.93600
O414        O  0.70275448  0.70833909  0.86653444    -0.41400
O415        O  0.67856432  0.79325404  0.84850325    -0.78000
O416        O  0.64812276  0.73802527  0.86877059    -0.96700
O417        O  0.61419648  0.76868597  0.88784787    -0.90000
O418        O  0.64643617  0.82811335  0.86553975    -0.92900
C419        C  0.78712136  0.79943819  0.88313648     1.00900
C420        C  0.78063047  0.90804383  0.87986311     1.13800
C421        C  0.70686715  0.76251840  0.93024770     1.04600
O422        O  0.64050884  0.68304031  0.89972586    -0.95000
O423        O  0.58524604  0.69335491  0.89003854    -0.90800
O424        O  0.57012874  0.71125573  0.86590068    -0.83900
C425        C  0.56381945  0.68890098  0.87786836     1.11200
O426        O  0.66527668  0.86544940  0.92089661    -0.97000
Zr427      Zr  0.64235764  0.82864130  0.89574663     1.88900
O428        O  0.57064954  0.77933051  0.86248870    -0.73600
O429        O  0.60438107  0.72628186  0.92330450    -0.52900
O430        O  0.60227967  0.80385400  0.91972375    -0.97600
O431        O  0.64904220  0.88646189  0.89101799    -0.54800
O432        O  0.58557695  0.81530553  0.88532649    -0.74200
C433        C  0.56434558  0.79701838  0.87346440     0.98200
O434        O  0.59452060  0.72688370  0.83402924    -0.63000
O435        O  0.74809118  0.87170386  0.83338035    -0.57800
O436        O  0.62354471  0.79546707  0.83033628    -0.94500
O437        O  0.67643335  0.84566080  0.82913468    -0.92900
O438        O  0.74777069  0.78684906  0.83594091    -0.93200
O439        O  0.68687769  0.72892866  0.83509833    -0.92000
C440        C  0.64713981  0.82274885  0.82246707     1.17000
H441        H  0.76013690  0.83792055  0.86459453     0.33000
H442        H  0.63602298  0.71392165  0.86499227     0.43800
H443        H  0.63538733  0.83977609  0.86006060     0.37300
H444        H  0.67065299  0.80097410  0.92008751     0.33800
H445        H  0.72007012  0.70719867  0.85901640     0.25600
H446        H  0.60503672  0.70678448  0.92931450     0.31600
H447        H  0.58237181  0.78169662  0.91542602     0.37500
H448        H  0.75859563  0.81268559  0.83626161     0.31900
H449        H  0.75171083  0.89481983  0.82967004     0.30800
H450        H  0.71872742  0.92092170  0.84576477     0.32500
H451        H  0.63583301  0.88427210  0.88044833     0.31500
H452        H  0.66129679  0.71966754  0.83516992     0.35400
H453        H  0.61358545  0.73527597  0.82553405     0.28200
H454        H  0.77469474  0.86090781  0.92653171     0.32400
H455        H  0.64748316  0.87183025  0.92397853     0.35300
H456        H  0.77050178  0.87709668  0.83881864     0.27900
H457        H  0.59223390  0.70453744  0.83815975     0.40700
H458        H  0.66527039  0.68891271  0.90005364     0.30800
H459        H  0.71258234  0.71064261  0.87811277     0.38400
H460        H  0.67391307  0.90163101  0.88778770     0.30300
H461        H  0.61686422  0.74663854  0.93096501     0.30300
H462        H  0.73713494  0.85307898  0.93172712     0.30600
Zr463      Zr  0.83768395  0.68660867  0.09792689     2.17500
O464        O  0.87514639  0.70790277  0.07285329    -0.51800
O465        O  0.82828973  0.73579226  0.10162941    -0.75000
O466        O  0.80322520  0.68299662  0.07298874    -0.81700
O467        O  0.91539266  0.71934961  0.12795464    -0.83500
O468        O  0.75062788  0.63244102  0.07446749    -0.79100
O469        O  0.89770566  0.73297888  0.10327595    -0.90800
O470        O  0.79201692  0.72281462  0.12425316    -0.76700
O471        O  0.77814492  0.65942328  0.10675239    -0.86200
O472        O  0.83895580  0.69426535  0.12794059    -0.85900
O473        O  0.81127084  0.62633734  0.08940263    -0.72700
O474        O  0.86811290  0.65888310  0.10943554    -0.84800
Zr475      Zr  0.78301240  0.57825860  0.14062205     2.26400
Zr476      Zr  0.75182373  0.59897719  0.09914007     2.06300
Zr477      Zr  0.86796953  0.66542851  0.13958804     2.10000
Zr478      Zr  0.77954601  0.66696407  0.13659327     1.78800
O479        O  0.92113173  0.66181399  0.14128738    -0.93600
O480        O  0.72179276  0.65971092  0.13166298    -0.41400
O481        O  0.80861513  0.63851067  0.14891917    -0.78000
O482        O  0.75196974  0.60595826  0.12934221    -0.96700
O483        O  0.78163868  0.57092992  0.11067111    -0.90000
O484        O  0.84244030  0.60533870  0.13182195    -0.92900
C485        C  0.81040237  0.74296574  0.11196936     1.00900
C486        C  0.92063984  0.73912403  0.11492137     1.13800
C487        C  0.77234832  0.66181227  0.06729928     1.04600
O488        O  0.69439586  0.59392079  0.09731927    -0.95000
O489        O  0.70660300  0.54144607  0.10965433    -0.90800
O490        O  0.72661474  0.52861594  0.13379873    -0.83900
C491        C  0.70347320  0.52104505  0.12218379     1.11200
O492        O  0.87757165  0.61938710  0.07646082    -0.97000
Zr493      Zr  0.84087717  0.59843788  0.10179369     1.88900
O494        O  0.79414816  0.52969945  0.13698971    -0.73600
O495        O  0.74094074  0.56055207  0.07499843    -0.52900
O496        O  0.81404035  0.55600489  0.07894263    -0.97600
O497        O  0.89836361  0.60479665  0.10662594    -0.54800
O498        O  0.82825423  0.54248656  0.11351273    -0.74200
C499        C  0.81109500  0.52245836  0.12602870     0.98200
O500        O  0.74412100  0.55657922  0.16527163    -0.63000
O501        O  0.88683718  0.70827560  0.16241174    -0.57800
O502        O  0.81376465  0.58408744  0.16712026    -0.94500
O503        O  0.86326883  0.63758894  0.16702712    -0.92900
O504        O  0.80453668  0.71010979  0.15923021    -0.93200
O505        O  0.74446139  0.64844219  0.16243318    -0.92000
C506        C  0.84169747  0.60826901  0.17419741     1.17000
H507        H  0.85131576  0.71882761  0.13089084     0.33000
H508        H  0.72820524  0.59405656  0.13356209     0.43800
H509        H  0.85451090  0.59480841  0.13737653     0.37300
H510        H  0.81173748  0.62495752  0.07715025     0.33800
H511        H  0.72375851  0.68190774  0.13562609     0.25600
H512        H  0.74393315  0.54122633  0.07958767     0.31600
H513        H  0.82623720  0.54231809  0.07909100     0.37500
H514        H  0.81811434  0.70237591  0.16625826     0.31900
H515        H  0.91229122  0.71731451  0.16356024     0.30800
H516        H  0.93178185  0.67252771  0.15235450     0.32500
H517        H  0.89626759  0.59216119  0.11742222     0.31500
H518        H  0.73670250  0.62319504  0.16365019     0.35400
H519        H  0.75415369  0.57609060  0.17353196     0.28200
H520        H  0.87151771  0.72663830  0.06799113     0.32400
H521        H  0.88324877  0.60094473  0.07364771     0.35300
H522        H  0.88518712  0.72822707  0.15760769     0.27900
H523        H  0.72218727  0.55552354  0.16150519     0.40700
H524        H  0.68694392  0.59276793  0.10927821     0.30800
H525        H  0.71978861  0.66051637  0.11913728     0.38400
H526        H  0.91375435  0.62987856  0.10943667     0.30300
H527        H  0.71547183  0.54957103  0.07286312     0.30300
H528        H  0.86429197  0.68850255  0.06455170     0.30600
Zr529      Zr  0.26016833  0.09140910  0.10707735     2.17500
O530        O  0.22957077  0.09973189  0.08317640    -0.51800
O531        O  0.21611991  0.03110874  0.11230225    -0.75000
O532        O  0.26463854  0.06325758  0.08126719    -0.81700
O533        O  0.22643638  0.13108273  0.13938448    -0.83500
O534        O  0.31901008  0.06995637  0.07956107    -0.79100
O535        O  0.21211698  0.10143317  0.11437819    -0.90800
O536        O  0.23487317  0.01066456  0.13411602    -0.76700
O537        O  0.29343230  0.06414704  0.11430446    -0.86200
O538        O  0.25739399  0.08497696  0.13731411    -0.85900
O539        O  0.31800360  0.12995221  0.09632969    -0.72700
O540        O  0.28450599  0.14940793  0.11836999    -0.84800
Zr541      Zr  0.37467983  0.15499529  0.14572139     2.26400
Zr542      Zr  0.35168776  0.10303676  0.10445767     2.06300
Zr543      Zr  0.28357293  0.14290562  0.14865815     2.10000
Zr544      Zr  0.29073552  0.05804484  0.14438053     1.78800
O545        O  0.28409041  0.19820819  0.15107394    -0.93600
O546        O  0.30128528  0.00968622  0.13931170    -0.41400
O547        O  0.31681815  0.11570975  0.15621240    -0.78000
O548        O  0.34969894  0.09627609  0.13480953    -0.96700
O549        O  0.37662325  0.16096041  0.11557370    -0.90000
O550        O  0.34127485  0.18203598  0.13861851    -0.92900
C551        C  0.21253298  0.00678971  0.12256173     1.00900
C552        C  0.20570840  0.11632261  0.12677647     1.13800
C553        C  0.28779505  0.05842591  0.07385176     1.04600
O554        O  0.35699944  0.05083652  0.10224228    -0.95000
O555        O  0.41125016  0.11852518  0.11256696    -0.90800
O556        O  0.42486924  0.15098501  0.13665010    -0.83900
C557        C  0.43234699  0.13617975  0.12470188     1.11200
O558        O  0.31414171  0.20069040  0.08527327    -0.97000
Zr559      Zr  0.34266512  0.18724621  0.10839528     1.88900
O560        O  0.41817714  0.21654272  0.14038263    -0.73600
O561        O  0.38919430  0.13293601  0.08013693    -0.52900
O562        O  0.37825679  0.20351052  0.08271519    -0.97600
O563        O  0.33439322  0.23693109  0.11426418    -0.54800
O564        O  0.39924945  0.23342906  0.11723296    -0.74200
C565        C  0.42170013  0.23914555  0.12893777     0.98200
O566        O  0.40583904  0.14355946  0.16843981    -0.63000
O567        O  0.24435821  0.11597660  0.17281382    -0.57800
O568        O  0.36905138  0.17688581  0.17328890    -0.94500
O569        O  0.31339638  0.16653601  0.17552990    -0.92900
O570        O  0.25306560  0.04034646  0.16935745    -0.93200
O571        O  0.31616337  0.04419328  0.16868093    -0.92000
C572        C  0.34414243  0.17707022  0.18161552     1.17000
H573        H  0.23353652  0.07094292  0.14121606     0.33000
H574        H  0.36386017  0.08632178  0.13831645     0.43800
H575        H  0.35080596  0.20461445  0.14408142     0.37300
H576        H  0.31742710  0.13183928  0.08410527     0.33800
H577        H  0.28199349  0.98932433  0.14529475     0.25600
H578        H  0.39430987  0.11540697  0.07518428     0.31600
H579        H  0.39988092  0.20354950  0.08613299     0.37500
H580        H  0.26455684  0.06061095  0.17715011     0.31900
H581        H  0.23711760  0.13307796  0.17603354     0.30800
H582        H  0.26508539  0.19322748  0.15921183     0.32500
H583        H  0.35503928  0.25753923  0.10919666     0.31500
H584        H  0.33735738  0.06673413  0.17152710     0.35400
H585        H  0.39003684  0.13560039  0.17840955     0.28200
H586        H  0.21226344  0.07577196  0.07935668     0.32400
H587        H  0.33183659  0.22411464  0.08089576     0.35300
H588        H  0.22293807  0.09586159  0.16805728     0.27900
H589        H  0.40608700  0.12212058  0.16498577     0.40700
H590        H  0.36116139  0.04572920  0.11403476     0.30800
H591        H  0.29604499  0.00428315  0.12708616     0.38400
H592        H  0.33772698  0.24075298  0.12668067     0.30300
H593        H  0.37374189  0.13523813  0.07169840     0.30300
H594        H  0.24697117  0.10977645  0.07386740     0.30600
Zr595      Zr  0.15641742  0.84305928  0.90774613     2.17500
O596        O  0.11613351  0.83164727  0.93122749    -0.51800
O597        O  0.17170387  0.90297576  0.90124440    -0.75000
O598        O  0.18828778  0.87462059  0.93320723    -0.81700
O599        O  0.08371860  0.80030997  0.87526861    -0.83500
O600        O  0.23607740  0.86815239  0.93579630    -0.79100
O601        O  0.09915568  0.83405789  0.89899033    -0.90800
O602        O  0.21104233  0.92259383  0.87963503    -0.76700
O603        O  0.21730095  0.87076256  0.90131574    -0.86200
O604        O  0.16079027  0.84762107  0.87751693    -0.85900
O605        O  0.17684810  0.80602935  0.91967057    -0.72700
O606        O  0.12403224  0.78394428  0.89735397    -0.84800
Zr607      Zr  0.21005426  0.77945787  0.87172619     2.26400
Zr608      Zr  0.23774058  0.83336632  0.91224893     2.06300
Zr609      Zr  0.12985833  0.78892173  0.86710979     2.10000
Zr610      Zr  0.22149093  0.87562945  0.87126893     1.78800
O611        O  0.07637958  0.73253968  0.86381215    -0.93600
O612        O  0.27921784  0.92433944  0.87846032    -0.41400
O613        O  0.19054027  0.81724104  0.86013459    -0.78000
O614        O  0.24304287  0.83879662  0.88190799    -0.96700
O615        O  0.20596560  0.77474121  0.90191125    -0.90000
O616        O  0.14930217  0.75126458  0.87835836    -0.92900
C617        C  0.19201996  0.92673341  0.89062345     1.00900
C618        C  0.07784019  0.81725736  0.88675599     1.13800
C619        C  0.21632064  0.87995742  0.94091079     1.04600
O620        O  0.29553666  0.88505981  0.91526380    -0.95000
O621        O  0.28318377  0.81911788  0.90484682    -0.90800
O622        O  0.26499582  0.78552414  0.88108958    -0.83900
C623        C  0.28724443  0.80135848  0.89301049     1.11200
O624        O  0.09969374  0.73480468  0.92939341    -0.97000
Zr625      Zr  0.14549742  0.74762771  0.90859877     1.88900
O626        O  0.19499586  0.71940302  0.87842220    -0.73600
O627        O  0.24384828  0.80481069  0.93763893    -0.52900
O628        O  0.16444368  0.73673875  0.93601035    -0.97600
O629        O  0.08998275  0.69375623  0.90361395    -0.54800
O630        O  0.15951493  0.70266141  0.90156063    -0.74200
C631        C  0.17705568  0.69729334  0.89021062     0.98200
O632        O  0.25101627  0.79150485  0.84833872    -0.63000
O633        O  0.11612629  0.81363250  0.84239903    -0.57800
O634        O  0.18306175  0.75398805  0.84452538    -0.94500
O635        O  0.13879048  0.76553724  0.84095982    -0.92900
O636        O  0.20421546  0.89335637  0.84525550    -0.93200
O637        O  0.26230636  0.88965816  0.84780472    -0.92000
C638        C  0.15876425  0.75426535  0.83558583     1.17000
H639        H  0.15065778  0.86099619  0.87301661     0.33000
H640        H  0.26729670  0.84903312  0.87862001     0.43800
H641        H  0.13674655  0.72834588  0.87321233     0.37300
H642        H  0.17423227  0.80500488  0.93189607     0.33800
H643        H  0.28173873  0.94429080  0.87148081     0.25600
H644        H  0.26667491  0.82230623  0.94255793     0.31600
H645        H  0.18245608  0.73048289  0.93323026     0.37500
H646        H  0.19363194  0.87212223  0.83806051     0.31900
H647        H  0.09148490  0.79630310  0.83962608     0.30800
H648        H  0.06610756  0.72652135  0.87536450     0.32500
H649        H  0.09126549  0.67558310  0.91056685     0.31500
H650        H  0.26093870  0.86711320  0.84507571     0.35400
H651        H  0.24399860  0.80239851  0.83922931     0.28200
H652        H  0.12142049  0.85507393  0.93521262     0.32400
H653        H  0.09725757  0.71477092  0.93627296     0.35300
H654        H  0.11534126  0.83430234  0.84666311     0.27900
H655        H  0.27384019  0.81105971  0.85221712     0.40700
H656        H  0.30282167  0.89379714  0.90349814     0.30800
H657        H  0.27692294  0.93060007  0.89026394     0.38400
H658        H  0.09106916  0.68719397  0.89171920     0.30300
H659        H  0.22626132  0.80381873  0.94572708     0.30300
H660        H  0.12420055  0.82212324  0.94053451     0.30600
Zr661      Zr  0.13678265  0.24586369  0.91004329     2.17500
O662        O  0.14783434  0.21674415  0.93378202    -0.51800
O663        O  0.07719400  0.20022171  0.90435792    -0.75000
O664        O  0.10758841  0.24820063  0.93560323    -0.81700
O665        O  0.17636353  0.21169391  0.87808282    -0.83500
O666        O  0.11051473  0.30111934  0.93673615    -0.79100
O667        O  0.14572828  0.19763711  0.90282666    -0.90800
O668        O  0.05647725  0.21809979  0.88229758    -0.76700
O669        O  0.10864346  0.27841997  0.90337996    -0.86200
O670        O  0.12980051  0.24317410  0.87996062    -0.85900
O671        O  0.17501951  0.30375299  0.92078762    -0.72700
O672        O  0.19461890  0.27045381  0.89860979    -0.84800
Zr673      Zr  0.19851513  0.35983943  0.87141625     2.26400
Zr674      Zr  0.14727959  0.33672694  0.91306847     2.06300
Zr675      Zr  0.18735025  0.26884978  0.86843625     2.10000
Zr676      Zr  0.10214142  0.27615309  0.87340104     1.78800
O677        O  0.24355673  0.27174383  0.86536522    -0.93600
O678        O  0.05463242  0.28570844  0.88194997    -0.41400
O679        O  0.15944546  0.30179286  0.86122707    -0.78000
O680        O  0.14023704  0.33520550  0.88272439    -0.96700
O681        O  0.20497343  0.36218551  0.90151282    -0.90000
O682        O  0.22628609  0.32687261  0.87818869    -0.92900
C683        C  0.05319487  0.19556550  0.89368123     1.00900
C684        C  0.16088312  0.19099564  0.89071100     1.13800
C685        C  0.10026859  0.27001610  0.94252555     1.04600
O686        O  0.09828786  0.34702262  0.91573244    -0.95000
O687        O  0.16410056  0.39688858  0.90539449    -0.90800
O688        O  0.19628819  0.41075419  0.88115935    -0.83900
C689        C  0.18216244  0.41832853  0.89339679     1.11200
O690        O  0.24216769  0.30005845  0.93258728    -0.97000
Zr691      Zr  0.23217181  0.32893776  0.90838332     1.88900
O692        O  0.26047518  0.40179495  0.87518267    -0.73600
O693        O  0.17646482  0.36994239  0.93850269    -0.52900
O694        O  0.25187469  0.36975453  0.93210777    -0.97600
O695        O  0.28068779  0.31847817  0.90366561    -0.54800
O696        O  0.27962643  0.38372694  0.89779724    -0.74200
C697        C  0.28431706  0.40544478  0.88576748     0.98200
O698        O  0.18909085  0.39160750  0.84816978    -0.63000
O699        O  0.16127640  0.22715132  0.84519003    -0.57800
O700        O  0.21749168  0.35337175  0.84340283    -0.94500
O701        O  0.20729321  0.29769525  0.84099901    -0.92900
O702        O  0.08306174  0.24068153  0.84776835    -0.93200
O703        O  0.08638544  0.30255484  0.85019170    -0.92000
C704        C  0.21669534  0.32827233  0.83485814     1.17000
H705        H  0.11596359  0.21929791  0.87606410     0.33000
H706        H  0.13033110  0.34953970  0.87935711     0.43800
H707        H  0.24862774  0.33631627  0.87255423     0.37300
H708        H  0.17688241  0.30300199  0.93302219     0.33800
H709        H  0.03440002  0.26922232  0.87493259     0.25600
H710        H  0.20002508  0.38803720  0.93456309     0.31600
H711        H  0.27769832  0.38072985  0.93216586     0.37500
H712        H  0.10504036  0.24554887  0.84210335     0.31900
H713        H  0.17827948  0.21935495  0.84275625     0.30800
H714        H  0.24154397  0.25936250  0.85459662     0.32500
H715        H  0.30064005  0.33738033  0.90997073     0.31500
H716        H  0.10721304  0.32615276  0.84864596     0.35400
H717        H  0.17518571  0.37366643  0.83952479     0.28200
H718        H  0.12447838  0.19974876  0.93841482     0.32400
H719        H  0.26474753  0.31779078  0.93762373     0.35300
H720        H  0.14081039  0.20625146  0.85017771     0.27900
H721        H  0.17240501  0.39848790  0.85248881     0.40700
H722        H  0.08701221  0.34146275  0.90438967     0.30800
H723        H  0.04846201  0.27595655  0.89363488     0.38400
H724        H  0.28698888  0.32440765  0.89153990     0.30300
H725        H  0.16444648  0.38321991  0.94108259     0.30300
H726        H  0.15901747  0.23493891  0.94264972     0.30600
Zr727      Zr  0.85612986  0.11291572  0.09818270     2.17500
O728        O  0.84263114  0.07341830  0.07418545    -0.51800
O729        O  0.91455370  0.12370787  0.10408931    -0.75000
O730        O  0.88868652  0.14621120  0.07312135    -0.81700
O731        O  0.81196905  0.03846147  0.13010083    -0.83500
O732        O  0.88476008  0.19564006  0.07171338    -0.79100
O733        O  0.84333673  0.05387818  0.10551984    -0.90800
O734        O  0.93716345  0.16218599  0.12594231    -0.76700
O735        O  0.88590293  0.17381938  0.10463332    -0.86200
O736        O  0.86371144  0.11674916  0.12825706    -0.85900
O737        O  0.81883285  0.13401016  0.08765548    -0.72700
O738        O  0.79841945  0.08188297  0.11018869    -0.84800
Zr739      Zr  0.79904066  0.16940865  0.13710941     2.26400
Zr740      Zr  0.84840572  0.19493927  0.09499454     2.06300
Zr741      Zr  0.80647729  0.08727418  0.14031723     2.10000
Zr742      Zr  0.89361176  0.17757512  0.13455604     1.78800
O743        O  0.74989316  0.03532374  0.14596724    -0.93600
O744        O  0.94504558  0.23305000  0.12663519    -0.41400
O745        O  0.83651107  0.14821556  0.14702771    -0.78000
O746        O  0.85714730  0.20059167  0.12517950    -0.96700
O747        O  0.79113566  0.16505569  0.10706555    -0.90000
O748        O  0.76908765  0.10841180  0.13076484    -0.92900
C749        C  0.93901914  0.14210574  0.11472953     1.00900
C750        C  0.82646270  0.03200626  0.11758772     1.13800
C751        C  0.89584505  0.17561104  0.06616819     1.04600
O752        O  0.89676073  0.25407506  0.08973485    -0.95000
O753        O  0.83660680  0.24126481  0.10293789    -0.90800
O754        O  0.80421543  0.22405847  0.12715517    -0.83900
C755        C  0.81960314  0.24586196  0.11490158     1.11200
O756        O  0.74427583  0.06073995  0.07819999    -0.97000
Zr757      Zr  0.76195178  0.10433343  0.10066430     1.88900
O758        O  0.73761197  0.15307207  0.13366430    -0.73600
O759        O  0.81619195  0.19697581  0.07016929    -0.52900
O760        O  0.74729767  0.12595833  0.07510934    -0.97600
O761        O  0.71104636  0.04717967  0.10712419    -0.54800
O762        O  0.71780850  0.11693519  0.11083782    -0.74200
C763        C  0.71372172  0.13423822  0.12277632     0.98200
O764        O  0.81542129  0.21267978  0.15975388    -0.63000
O765        O  0.83577140  0.07385053  0.16306157    -0.57800
O766        O  0.77992960  0.14424717  0.16548240    -0.94500
O767        O  0.78863017  0.09774554  0.16776970    -0.92900
O768        O  0.90695556  0.15875608  0.16139500    -0.93200
O769        O  0.91249672  0.22213222  0.15651823    -0.92000
C770        C  0.78023220  0.11935909  0.17401601     1.17000
H771        H  0.87659434  0.10564283  0.13214312     0.33000
H772        H  0.86835875  0.22504423  0.12827827     0.43800
H773        H  0.74685131  0.09625762  0.13661888     0.37300
H774        H  0.81651887  0.13134191  0.07545394     0.33800
H775        H  0.96458780  0.23348769  0.13307716     0.25600
H776        H  0.82662653  0.22230571  0.06756826     0.31600
H777        H  0.72217356  0.11834267  0.07634792     0.37500
H778        H  0.91383658  0.14136693  0.15821629     0.31900
H779        H  0.81759225  0.05088695  0.16765989     0.30800
H780        H  0.75307079  0.02590825  0.15689005     0.32500
H781        H  0.69093055  0.04795124  0.10197810     0.31500
H782        H  0.89065015  0.21692579  0.16243159     0.35400
H783        H  0.82771592  0.20630979  0.16839002     0.28200
H784        H  0.86558254  0.07907656  0.06938538     0.32400
H785        H  0.72219592  0.05793259  0.07346428     0.35300
H786        H  0.85261212  0.06875685  0.15732680     0.27900
H787        H  0.83431566  0.23505684  0.15497693     0.40700
H788        H  0.91689075  0.25493731  0.09577917     0.30800
H789        H  0.94967489  0.23001565  0.11463973     0.38400
H790        H  0.70739797  0.04722108  0.11953274     0.30300
H791        H  0.82384527  0.18775282  0.06069294     0.30300
H792        H  0.83205034  0.08169882  0.06551239     0.30600
C793        C  0.07808060  0.25784403  0.95806875    -0.03600
C794        C  0.07081832  0.22624254  0.96612142    -0.06200
C795        C  0.04898153  0.21377923  0.98035326    -0.21300
C796        C  0.03344866  0.23225096  0.98687085     0.24400
C797        C  0.04107869  0.26420663  0.97901157    -0.18900
C798        C  0.06314150  0.27681797  0.96477345    -0.08800
C799        C  0.01053132  0.21770695  0.00215853    -0.19100
C800        C  0.98627684  0.22619330  0.00664032    -0.23900
C801        C  0.96332545  0.21206308  0.02197078     0.26500
C802        C  0.94502070  0.22878011  0.02717566    -0.20700
C803        C  0.92314809  0.21688862  0.04141625    -0.10300
C804        C  0.91866854  0.18762679  0.05082752    -0.10900
C805        C  0.93659821  0.17049579  0.04553606    -0.03800
C806        C  0.95864214  0.18250207  0.03128312    -0.18900
H807        H  0.08197952  0.21095940  0.96142079     0.10200
H808        H  0.04393890  0.18933562  0.98621439     0.10200
H809        H  0.03063454  0.27992155  0.98391351     0.09900
H810        H  0.06827031  0.30130396  0.95894685     0.11000
H811        H  0.01376869  0.19891216  0.00976195     0.11100
H812        H  0.98298591  0.24471750  0.99881309     0.13000
H813        H  0.94783235  0.25140838  0.02024478     0.09500
H814        H  0.90968628  0.23070097  0.04502280     0.11600
H815        H  0.93372974  0.14783869  0.05245099     0.08200
H816        H  0.97140188  0.16812750  0.02759812     0.11000
C817        C  0.18684335  0.45413090  0.89339361    -0.03600
C818        C  0.20936079  0.47947139  0.88153331    -0.06200
C819        C  0.21289944  0.51278199  0.88096377    -0.21300
C820        C  0.19373031  0.52149978  0.89204167     0.24400
C821        C  0.17187899  0.49656316  0.90424401    -0.18900
C822        C  0.16846886  0.46323203  0.90488929    -0.08800
C823        C  0.19747195  0.55686907  0.89053095    -0.19100
C824        C  0.17194989  0.56341344  0.89500374    -0.23900
C825        C  0.17477041  0.59836133  0.89344034     0.26500
C826        C  0.15337039  0.60531511  0.90385756    -0.20700
C827        C  0.15426629  0.63734220  0.90276660    -0.10300
C828        C  0.17636972  0.66326819  0.89103980    -0.10900
C829        C  0.19768877  0.65627595  0.88043625    -0.03800
C830        C  0.19692127  0.62412498  0.88161217    -0.18900
H831        H  0.22419058  0.47355796  0.87256996     0.10200
H832        H  0.23019426  0.53161251  0.87158935     0.10200
H833        H  0.15762415  0.50271502  0.91342167     0.09900
H834        H  0.15116225  0.44450039  0.91428450     0.11000
H835        H  0.22157142  0.57768326  0.88505019     0.11100
H836        H  0.14779229  0.54236816  0.90032878     0.13000
H837        H  0.13591654  0.58587689  0.91297870     0.09500
H838        H  0.13737219  0.64163603  0.91111725     0.11600
H839        H  0.21493981  0.67560056  0.87123065     0.08200
H840        H  0.21312420  0.61938490  0.87302094     0.11000
C841        C  0.16092578  0.15741429  0.89146868    -0.03600
C842        C  0.14664887  0.13479504  0.90557268    -0.06200
C843        C  0.14787599  0.10378273  0.90658890    -0.21300
C844        C  0.16366337  0.09482338  0.89365777     0.24400
C845        C  0.17713149  0.11689996  0.87931564    -0.18900
C846        C  0.17580935  0.14788411  0.87825490    -0.08800
C847        C  0.16470034  0.06181625  0.89538673    -0.19100
C848        C  0.18976667  0.05714463  0.88829290    -0.23900
C849        C  0.19103505  0.02411882  0.88981511     0.26500
C850        C  0.21161207  0.01828956  0.87821753    -0.20700
C851        C  0.21255753  0.98705866  0.87867605    -0.10300
C852        C  0.19298468  0.96089459  0.89082865    -0.10900
C853        C  0.17345950  0.96731102  0.90287103    -0.03800
C854        C  0.17259118  0.99857181  0.90243581    -0.18900
H855        H  0.13478885  0.14115910  0.91593883     0.10200
H856        H  0.13691833  0.08696509  0.91765818     0.10200
H857        H  0.18831723  0.11017901  0.86880131     0.09900
H858        H  0.18660649  0.16442767  0.86709334     0.11000
H859        H  0.14437902  0.04122196  0.90308738     0.11100
H860        H  0.21010596  0.07820228  0.88075046     0.13000
H861        H  0.22647468  0.03768334  0.86851274     0.09500
H862        H  0.22813227  0.98318920  0.86928401     0.11600
H863        H  0.15850953  0.94801693  0.91258947     0.08200
H864        H  0.15754142  0.00242055  0.91208717     0.11000
C865        C  0.22677140  0.90100866  0.95682902    -0.03600
C866        C  0.25259068  0.90136605  0.96750420    -0.06200
C867        C  0.26299232  0.92128927  0.98238124    -0.21300
C868        C  0.24802185  0.94153898  0.98710379     0.24400
C869        C  0.22215297  0.94133250  0.97639209    -0.18900
C870        C  0.21155105  0.92114199  0.96150246    -0.08800
C871        C  0.26094194  0.96274593  0.00305519    -0.19100
C872        C  0.24499452  0.97817717  0.01083369    -0.23900
C873        C  0.25726187  0.99853113  0.02705198     0.26500
C874        C  0.23426447  0.00654074  0.03554226    -0.20700
C875        C  0.24417342  0.02586650  0.05061750    -0.10300
C876        C  0.27759689  0.03801353  0.05769201    -0.10900
C877        C  0.30084365  0.03019374  0.04919516    -0.03800
C878        C  0.29088229  0.01076522  0.03406259    -0.18900
H879        H  0.26483314  0.88611698  0.96440152     0.10200
H880        H  0.28297198  0.92086279  0.99025952     0.10200
H881        H  0.21031275  0.95701787  0.97918537     0.09900
H882        H  0.19179250  0.92173548  0.95351797     0.11000
H883        H  0.28397672  0.96436294  0.00890178     0.11100
H884        H  0.22078244  0.97476117  0.00555219     0.13000
H885        H  0.20830470  0.99771974  0.03049351     0.09500
H886        H  0.22550175  0.03131599  0.05671154     0.11600
H887        H  0.32686240  0.03918935  0.05419978     0.08200
H888        H  0.30989843  0.00604495  0.02787137     0.11000
C889        C  0.97097129  0.13904976  0.11424780    -0.03600
C890        C  0.97511062  0.11921480  0.10148860    -0.06200
C891        C  0.00439362  0.11498553  0.10135698    -0.21300
C892        C  0.03006715  0.13007325  0.11404584     0.24400
C893        C  0.02636053  0.15048550  0.12666755    -0.18900
C894        C  0.99710040  0.15486339  0.12676683    -0.08800
C895        C  0.06074898  0.12481363  0.11332506    -0.19100
C896        C  0.07969504  0.12642455  0.12711473    -0.23900
C897        C  0.11111089  0.12232779  0.12656947     0.26500
C898        C  0.13499645  0.13599052  0.14006640    -0.20700
C899        C  0.16531725  0.13364759  0.14013435    -0.10300
C900        C  0.17255123  0.11728203  0.12671314    -0.10900
C901        C  0.14819743  0.10272230  0.11335507    -0.03800
C902        C  0.11772489  0.10513277  0.11328486    -0.18900
H903        H  0.95562953  0.10675835  0.09159020     0.10200
H904        H  0.00679378  0.09948388  0.09139271     0.10200
H905        H  0.04617648  0.16360447  0.13633183     0.09900
H906        H  0.99487993  0.17047198  0.13672452     0.11000
H907        H  0.06742057  0.11900084  0.10098866     0.11100
H908        H  0.07258539  0.13191660  0.13943037     0.13000
H909        H  0.13045422  0.14906040  0.15053116     0.09500
H910        H  0.18325373  0.14502129  0.15072337     0.11600
H911        H  0.15273814  0.08962554  0.10291464     0.08200
H912        H  0.09943676  0.09320563  0.10290422     0.11000
C913        C  0.67896643  0.13197694  0.12361754    -0.03600
C914        C  0.65237893  0.11000413  0.11221889    -0.06200
C915        C  0.61995138  0.10814086  0.11222375    -0.21300
C916        C  0.61289060  0.12821338  0.12352955     0.24400
C917        C  0.63916327  0.14988182  0.13523335    -0.18900
C918        C  0.67188565  0.15172675  0.13525011    -0.08800
C919        C  0.57765078  0.12500850  0.12246829    -0.19100
C920        C  0.56887069  0.14703485  0.12979980    -0.23900
C921        C  0.53365163  0.14362695  0.12793419     0.26500
C922        C  0.52303997  0.15934379  0.14015598    -0.20700
C923        C  0.49044482  0.15717175  0.13895903    -0.10300
C924        C  0.46750183  0.13934253  0.12539414    -0.10900
C925        C  0.47831440  0.12408899  0.11293647    -0.03800
C926        C  0.51105301  0.12629960  0.11413979    -0.18900
H927        H  0.65656923  0.09419255  0.10310192     0.10200
H928        H  0.60032287  0.09107926  0.10314200     0.10200
H929        H  0.63472284  0.16526950  0.14445697     0.09900
H930        H  0.69166247  0.16877258  0.14426686     0.11000
H931        H  0.55813369  0.10343122  0.11495618     0.11100
H932        H  0.58777965  0.16824718  0.13767581     0.13000
H933        H  0.53995249  0.17315115  0.15080205     0.09500
H934        H  0.48318192  0.16934394  0.14880978     0.11600
H935        H  0.46149593  0.11041262  0.10224931     0.08200
H936        H  0.51862695  0.11489450  0.10407719     0.11000
C937        C  0.18031170  0.97209358  0.12096705    -0.03600
C938        C  0.17321543  0.94494459  0.13259893    -0.06200
C939        C  0.14247246  0.91249909  0.13125526    -0.21300
C940        C  0.11801245  0.90653546  0.11838596     0.24400
C941        C  0.12540142  0.93336707  0.10648180    -0.18900
C942        C  0.15616410  0.96581501  0.10780074    -0.08800
C943        C  0.08527810  0.87199445  0.11783980    -0.19100
C944        C  0.05510186  0.86734507  0.11115036    -0.23900
C945        C  0.02152191  0.83346077  0.11183721     0.26500
C946        C  0.99467615  0.82797900  0.10044362    -0.20700
C947        C  0.96208621  0.79712905  0.10117040    -0.10300
C948        C  0.95553543  0.77123692  0.11347956    -0.10900
C949        C  0.98249693  0.77672215  0.12485701    -0.03800
C950        C  0.01501724  0.80745388  0.12410355    -0.18900
H951        H  0.19127170  0.94879191  0.14283920     0.10200
H952        H  0.13749131  0.89213342  0.14049436     0.10200
H953        H  0.10779475  0.92937937  0.09602585     0.09900
H954        H  0.16099036  0.98596402  0.09846349     0.11000
H955        H  0.08600784  0.85014832  0.12386034     0.11100
H956        H  0.05451112  0.88929192  0.10513860     0.13000
H957        H  0.99889203  0.84773241  0.09097951     0.09500
H958        H  0.94188220  0.79384182  0.09226741     0.11600
H959        H  0.97838972  0.75743386  0.13456279     0.08200
H960        H  0.03441600  0.81096223  0.13351745     0.11000
C961        C  0.45358462  0.27433547  0.12874072    -0.03600
C962        C  0.45487228  0.30063474  0.11795994    -0.06200
C963        C  0.48489713  0.33355322  0.11695466    -0.21300
C964        C  0.51459398  0.34116024  0.12657674     0.24400
C965        C  0.51339289  0.31511418  0.13757957    -0.18900
C966        C  0.48312104  0.28196926  0.13862883    -0.08800
C967        C  0.54565658  0.37687186  0.12496349    -0.19100
C968        C  0.57841793  0.38457037  0.12885935    -0.23900
C969        C  0.60964550  0.42012472  0.12688449     0.26500
C970        C  0.64006481  0.42759068  0.13587316    -0.20700
C971        C  0.67038513  0.46027601  0.13430272    -0.10300
C972        C  0.67116705  0.48631991  0.12353351    -0.10900
C973        C  0.64088388  0.47880573  0.11432141    -0.03800
C974        C  0.61038809  0.44605419  0.11596640    -0.18900
H975        H  0.43259201  0.29587601  0.11020138     0.10200
H976        H  0.48498275  0.35313160  0.10848964     0.10200
H977        H  0.53538945  0.32025037  0.14560405     0.09900
H978        H  0.48292853  0.26232963  0.14707351     0.11000
H979        H  0.54109108  0.39726224  0.12000033     0.11100
H980        H  0.58290213  0.36412161  0.13381924     0.13000
H981        H  0.64035795  0.40804950  0.14422234     0.09500
H982        H  0.69334077  0.46501931  0.14147986     0.11600
H983        H  0.64071103  0.49826262  0.10587648     0.08200
H984        H  0.58792354  0.44112026  0.10837039     0.11000
C985        C  0.81135974  0.77692727  0.10981449    -0.03600
C986        C  0.83186186  0.80092305  0.09701625    -0.06200
C987        C  0.83373014  0.83348363  0.09552671    -0.21300
C988        C  0.81542882  0.84292447  0.10684012     0.24400
C989        C  0.79399926  0.81845413  0.11928678    -0.18900
C990        C  0.79214997  0.78597507  0.12079183    -0.08800
C991        C  0.81902550  0.87824674  0.10518472    -0.19100
C992        C  0.81354156  0.89445811  0.11826154    -0.23900
C993        C  0.81687298  0.92966708  0.11715017     0.26500
C994        C  0.79979230  0.93840594  0.12948688    -0.20700
C995        C  0.80276714  0.97142271  0.12949816    -0.10300
C996        C  0.82319562  0.99681264  0.11719920    -0.10900
C997        C  0.84042969  0.98816593  0.10479345    -0.03800
C998        C  0.83737908  0.95493629  0.10477477    -0.18900
H999        H  0.84680861  0.79475716  0.08825014     0.10200
H1000       H  0.85006360  0.85163957  0.08569288     0.10200
H1001       H  0.77825008  0.82395635  0.12781020     0.09900
H1002       H  0.77568116  0.76799431  0.13064147     0.11000
H1003       H  0.82715840  0.89135041  0.09292924     0.11100
H1004       H  0.80585229  0.88135422  0.13053262     0.13000
H1005       H  0.78398415  0.91953099  0.13920365     0.09500
H1006       H  0.78906108  0.97701852  0.13924863     0.11600
H1007       H  0.85658072  0.00717250  0.09520776     0.08200
H1008       H  0.85174758  0.94958513  0.09532027     0.11000
C1009       C  0.81092984  0.48875887  0.12747071    -0.03600
C1010       C  0.78809980  0.46186428  0.13858871    -0.06200
C1011       C  0.78704185  0.42951376  0.13888232    -0.21300
C1012       C  0.80857226  0.42334143  0.12803159     0.24400
C1013       C  0.83222579  0.45072116  0.11737085    -0.18900
C1014       C  0.83323123  0.48283776  0.11704279    -0.08800
C1015       C  0.80658977  0.38860151  0.12849468    -0.19100
C1016       C  0.81659158  0.37606678  0.11535416    -0.23900
C1017       C  0.81631930  0.34212314  0.11553759     0.26500
C1018       C  0.83474327  0.33605649  0.10274570    -0.20700
C1019       C  0.83562233  0.30478003  0.10238569    -0.10300
C1020       C  0.81791251  0.27867038  0.11481443    -0.10900
C1021       C  0.79899093  0.28449037  0.12745753    -0.03800
C1022       C  0.79809999  0.31572952  0.12780937    -0.18900
H1023       H  0.77064178  0.46555978  0.14681845     0.10200
H1024       H  0.76894461  0.40904057  0.14741314     0.10200
H1025       H  0.85046263  0.44782126  0.10939222     0.09900
H1026       H  0.85163131  0.50310080  0.10852151     0.11000
H1027       H  0.79640689  0.37320277  0.14003535     0.11100
H1028       H  0.82595447  0.39153019  0.10376185     0.13000
H1029       H  0.84884335  0.35577954  0.09305189     0.09500
H1030       H  0.85043001  0.30123074  0.09244510     0.11600
H1031       H  0.78479640  0.26487603  0.13717190     0.08200
H1032       H  0.78275634  0.31863213  0.13763135     0.11000
C1033       C  0.52946142  0.65587349  0.87754403    -0.03600
C1034       C  0.50347727  0.65156872  0.86577881    -0.06200
C1035       C  0.47088705  0.62076474  0.86565308    -0.21300
C1036       C  0.46355047  0.59337606  0.87712048     0.24400
C1037       C  0.48949484  0.59763357  0.88891843    -0.18900
C1038       C  0.52207817  0.62847846  0.88907181    -0.08800
C1039       C  0.42821904  0.56148305  0.87672929    -0.19100
C1040       C  0.42132236  0.53020658  0.88310431    -0.23900
C1041       C  0.38600109  0.49841219  0.88308815     0.26500
C1042       C  0.37915504  0.47175681  0.89491064    -0.20700
C1043       C  0.34635931  0.44143197  0.89557251    -0.10300
C1044       C  0.31956365  0.43691356  0.88431548    -0.10900
C1045       C  0.32663923  0.46318226  0.87213965    -0.03800
C1046       C  0.35955427  0.49362641  0.87149642    -0.18900
H1047       H  0.50813417  0.67215494  0.85674524     0.10200
H1048       H  0.45131939  0.61830540  0.85652681     0.10200
H1049       H  0.48465300  0.57775281  0.89836950     0.09900
H1050       H  0.54137985  0.63095441  0.89835360     0.11000
H1051       H  0.40738401  0.56411612  0.87084456     0.11100
H1052       H  0.44217401  0.52754807  0.88893518     0.13000
H1053       H  0.39916447  0.47460504  0.90384856     0.09500
H1054       H  0.34197423  0.42169409  0.90507147     0.11600
H1055       H  0.30668719  0.46039416  0.86319019     0.08200
H1056       H  0.36415510  0.51297642  0.86178074     0.11000
C1057       C  0.81264277  0.94314493  0.88069869    -0.03600
C1058       C  0.81981182  0.96813861  0.86777904    -0.06200
C1059       C  0.85002530  0.00110278  0.86837888    -0.21300
C1060       C  0.87368730  0.01009563  0.88193970     0.24400
C1061       C  0.86685777  0.98501814  0.89479502    -0.18900
C1062       C  0.83659497  0.95194446  0.89418960    -0.08800
C1063       C  0.90556333  0.04541202  0.88178777    -0.19100
C1064       C  0.92475828  0.06124245  0.89571546    -0.23900
C1065       C  0.95696643  0.09625783  0.89512822     0.26500
C1066       C  0.98280761  0.10451806  0.90754908    -0.20700
C1067       C  0.01397192  0.13678300  0.90714645    -0.10300
C1068       C  0.01976479  0.16172267  0.89439517    -0.10900
C1069       C  0.99345095  0.15377613  0.88221249    -0.03800
C1070       C  0.96233532  0.12148540  0.88260559    -0.18900
H1071       H  0.80212105  0.96227263  0.85712378     0.10200
H1072       H  0.85481700  0.01977788  0.85823077     0.10200
H1073       H  0.88497140  0.99040487  0.90517711     0.09900
H1074       H  0.83209934  0.93321578  0.90425560     0.11000
H1075       H  0.91326231  0.05882355  0.86958362     0.11100
H1076       H  0.91749834  0.04793302  0.90794482     0.13000
H1077       H  0.97914564  0.08566409  0.91741894     0.09500
H1078       H  0.03356820  0.14207004  0.91680008     0.11600
H1079       H  0.99688086  0.17246368  0.87230591     0.08200
H1080       H  0.94251428  0.11665236  0.87318040     0.11000
C1081       C  0.53034326  0.79638715  0.87293108    -0.03600
C1082       C  0.50281058  0.77358941  0.86218634    -0.06200
C1083       C  0.47035072  0.77219149  0.86276605    -0.21300
C1084       C  0.46463211  0.79323361  0.87418770     0.24400
C1085       C  0.49258784  0.81682645  0.88448266    -0.18900
C1086       C  0.52481781  0.81823435  0.88391486    -0.08800
C1087       C  0.42967852  0.79071754  0.87482452    -0.19100
C1088       C  0.41777867  0.79942457  0.88871918    -0.23900
C1089       C  0.38361202  0.79853957  0.88973095     0.26500
C1090       C  0.37868574  0.81730801  0.90277883    -0.20700
C1091       C  0.34733179  0.81786577  0.90413227    -0.10300
C1092       C  0.31994676  0.79938369  0.89250292    -0.10900
C1093       C  0.32457146  0.77979600  0.87971980    -0.03800
C1094       C  0.35589416  0.77932569  0.87834784    -0.18900
H1095       H  0.50613311  0.75646410  0.85355057     0.10200
H1096       H  0.44942574  0.75413207  0.85449857     0.10200
H1097       H  0.48998318  0.83466798  0.89289524     0.09900
H1098       H  0.54546762  0.83656908  0.89221787     0.11000
H1099       H  0.41350091  0.78115148  0.86352158     0.11100
H1100       H  0.43404553  0.80830962  0.90002762     0.13000
H1101       H  0.39944322  0.83209208  0.91184357     0.09500
H1102       H  0.34476758  0.83316223  0.91413959     0.11600
H1103       H  0.30400050  0.76488928  0.87059622     0.08200
H1104       H  0.35793928  0.76358806  0.86844393     0.11000
C1105       C  0.04402867  0.81696371  0.88544459    -0.03600
C1106       C  0.02200155  0.80095339  0.87135973    -0.06200
C1107       C  0.98994685  0.79971687  0.86985912    -0.21300
C1108       C  0.97859782  0.81412916  0.88240335     0.24400
C1109       C  0.00071244  0.83074971  0.89644097    -0.18900
C1110       C  0.03312489  0.83214293  0.89792625    -0.08800
C1111       C  0.94380326  0.81135820  0.87994515    -0.19100
C1112       C  0.92482152  0.81452836  0.89243962    -0.23900
C1113       C  0.88927774  0.80985243  0.88965048     0.26500
C1114       C  0.87690313  0.82526315  0.90114612    -0.20700
C1115       C  0.84381248  0.82167140  0.89904335    -0.10300
C1116       C  0.82193033  0.80222146  0.88542393    -0.10900
C1117       C  0.83392617  0.78601110  0.87412819    -0.03800
C1118       C  0.86715149  0.78968671  0.87622426    -0.18900
H1119       H  0.02942964  0.78918971  0.86137532     0.10200
H1120       H  0.97370358  0.78701286  0.85885576     0.10200
H1121       H  0.99343034  0.84304894  0.90618448     0.09900
H1122       H  0.04952480  0.84494402  0.90886024     0.11000
H1123       H  0.93304667  0.80541083  0.86717311     0.11100
H1124       H  0.93551388  0.82101432  0.90520717     0.13000
H1125       H  0.89309286  0.84053032  0.91171606     0.09500
H1126       H  0.83547268  0.83433300  0.90812746     0.11600
H1127       H  0.81769030  0.77052897  0.86362872     0.08200
H1128       H  0.87502338  0.77619941  0.86743489     0.11000
C1129       C  0.71725724  0.75243481  0.94644663    -0.03600
C1130       C  0.75162940  0.77226631  0.95272284    -0.06200
C1131       C  0.76145964  0.76261649  0.96787329    -0.21300
C1132       C  0.73720924  0.73317362  0.97728176     0.24400
C1133       C  0.70278990  0.71321329  0.97100332    -0.18900
C1134       C  0.69298721  0.72275631  0.95578798    -0.08800
C1135       C  0.74942317  0.72360243  0.99311135    -0.19100
C1136       C  0.72797658  0.70280678  0.00561760    -0.23900
C1137       C  0.74032084  0.69292028  0.02131921     0.26500
C1138       C  0.71617418  0.66344659  0.03076455    -0.20700
C1139       C  0.72647096  0.65311597  0.04557813    -0.10300
C1140       C  0.76121587  0.67228463  0.05144586    -0.10900
C1141       C  0.78527950  0.70211262  0.04212753    -0.03800
C1142       C  0.77501869  0.71234857  0.02729563    -0.18900
H1143       H  0.77111726  0.79516235  0.94586280     0.10200
H1144       H  0.78820792  0.77833361  0.97229093     0.10200
H1145       H  0.68346305  0.68976112  0.97751373     0.09900
H1146       H  0.66632564  0.70674246  0.95132446     0.11000
H1147       H  0.77744514  0.73450060  0.99437703     0.11100
H1148       H  0.69994987  0.69189235  0.00433027     0.13000
H1149       H  0.68921045  0.64813834  0.02658954     0.09500
H1150       H  0.70711846  0.63020112  0.05247424     0.11600
H1151       H  0.81219532  0.71774646  0.04630791     0.08200
H1152       H  0.79432504  0.73585368  0.02081943     0.11000
C1153       C  0.77197021  0.11614052  0.19248515    -0.03600
C1154       C  0.77002720  0.14294488  0.20109936    -0.06200
C1155       C  0.76683995  0.14194945  0.21883483    -0.21300
C1156       C  0.76522464  0.11408500  0.22839792     0.24400
C1157       C  0.76579344  0.08656321  0.21970721    -0.18900
C1158       C  0.76906723  0.08760062  0.20199491    -0.08800
C1159       C  0.76666841  0.11665349  0.24732464    -0.19100
C1160       C  0.75878295  0.08948793  0.25798840    -0.23900
C1161       C  0.76556908  0.09336564  0.27668667     0.26500
C1162       C  0.76787146  0.06673212  0.28550887    -0.20700
C1163       C  0.77704807  0.07037824  0.30275115    -0.10300
C1164       C  0.78379433  0.10067870  0.31167291    -0.10900
C1165       C  0.77991313  0.12663202  0.30304245    -0.03800
C1166       C  0.77084517  0.12303105  0.28579546    -0.18900
H1167       H  0.77232281  0.16540718  0.19422714     0.10200
H1168       H  0.76665492  0.16360321  0.22516283     0.10200
H1169       H  0.76548630  0.06496101  0.22646151     0.09900
H1170       H  0.77051294  0.06649459  0.19581027     0.11000
H1171       H  0.77639372  0.14267472  0.25246753     0.11100
H1172       H  0.74888161  0.06344482  0.25282027     0.13000
H1173       H  0.76362894  0.04343105  0.27890074     0.09500
H1174       H  0.77957258  0.04975233  0.30898648     0.11600
H1175       H  0.78466561  0.15023733  0.30950756     0.08200
H1176       H  0.76815899  0.14367357  0.27976326     0.11000
C1177       C  0.21685861  0.32184757  0.69696479    -0.03600
C1178       C  0.22178592  0.29640585  0.70542306    -0.06200
C1179       C  0.22959506  0.29937349  0.72277364    -0.21300
C1180       C  0.23242355  0.32761836  0.73216872     0.24400
C1181       C  0.22896317  0.35391863  0.72358340    -0.18900
C1182       C  0.22121456  0.35099035  0.70618265    -0.08800
C1183       C  0.23790371  0.32770389  0.75087059    -0.19100
C1184       C  0.23127625  0.34680988  0.76194734    -0.23900
C1185       C  0.23198456  0.34289086  0.78072095     0.26500
C1186       C  0.23552706  0.37029914  0.79104539    -0.20700
C1187       C  0.23241999  0.36625249  0.80871193    -0.10300
C1188       C  0.22528057  0.33444489  0.81647201    -0.10900
C1189       C  0.22288199  0.30738324  0.80617035    -0.03800
C1190       C  0.22606583  0.31147426  0.78850188    -0.18900
H1191       H  0.21886636  0.27370126  0.69873002     0.10200
H1192       H  0.23244521  0.27890543  0.72898668     0.10200
H1193       H  0.23204198  0.37675916  0.73013102     0.09900
H1194       H  0.21780803  0.37117900  0.70005623     0.11000
H1195       H  0.24595215  0.30971129  0.75571523     0.11100
H1196       H  0.22379253  0.36534136  0.75731439     0.13000
H1197       H  0.23987412  0.39466845  0.78538418     0.09500
H1198       H  0.23430186  0.38763987  0.81621081     0.11600
H1199       H  0.21713226  0.28243842  0.81167718     0.08200
H1200       H  0.22214687  0.28929529  0.78103048     0.11000
C1201       C  0.93283191  0.17783389  0.45443808    -0.03600
C1202       C  0.91954990  0.18956760  0.46744824    -0.06200
C1203       C  0.93592887  0.19862424  0.48337721    -0.21300
C1204       C  0.96661983  0.19743205  0.48638662     0.24400
C1205       C  0.98014612  0.18596489  0.47338918    -0.18900
C1206       C  0.96308285  0.17574253  0.45762032    -0.08800
C1207       C  0.98336336  0.20680597  0.50337898    -0.19100
C1208       C  0.01765736  0.23007650  0.50537640    -0.23900
C1209       C  0.03467156  0.23955995  0.52236590     0.26500
C1210       C  0.06111521  0.27423821  0.52554589    -0.20700
C1211       C  0.07817969  0.28343046  0.54133857    -0.10300
C1212       C  0.06983781  0.25781616  0.55405215    -0.10900
C1213       C  0.04363128  0.22301612  0.55076025    -0.03800
C1214       C  0.02600665  0.21404312  0.53515345    -0.18900
H1215       H  0.89618229  0.19126255  0.46535894     0.10200
H1216       H  0.92495563  0.20712009  0.49329257     0.10200
H1217       H  0.00354835  0.18437457  0.47554973     0.09900
H1218       H  0.97390482  0.16688766  0.44779740     0.11000
H1219       H  0.96669298  0.19592738  0.51449497     0.11100
H1220       H  0.03337577  0.24360608  0.49426893     0.13000
H1221       H  0.06842243  0.29427075  0.51581687     0.09500
H1222       H  0.09841346  0.31038814  0.54347701     0.11600
H1223       H  0.03659805  0.20270488  0.56031457     0.08200
H1224       H  0.00621947  0.18696016  0.53293668     0.11000
C1225       C  0.13436364  0.73256241  0.69806454    -0.03600
C1226       C  0.10526506  0.72917196  0.70697056    -0.06200
C1227       C  0.10255101  0.72383211  0.72456704    -0.21300
C1228       C  0.12878549  0.72179267  0.73379214     0.24400
C1229       C  0.15691731  0.72309878  0.72477079    -0.18900
C1230       C  0.15965834  0.72847938  0.70711703    -0.08800
C1231       C  0.12604081  0.71973982  0.75272902    -0.19100
C1232       C  0.15253097  0.72580982  0.76340880    -0.23900
C1233       C  0.15083704  0.72892454  0.78222585     0.26500
C1234       C  0.17567021  0.72664783  0.79258430    -0.20700
C1235       C  0.17736481  0.73322698  0.81008256    -0.10300
C1236       C  0.15431074  0.74247313  0.81761054    -0.10900
C1237       C  0.12873508  0.74358118  0.80732329    -0.03800
C1238       C  0.12711932  0.73712775  0.78988837    -0.18900
H1239       H  0.08513725  0.73200786  0.70046979     0.10200
H1240       H  0.08037311  0.72254622  0.73108214     0.10200
H1241       H  0.17722442  0.72056555  0.73118141     0.09900
H1242       H  0.18228781  0.73067725  0.70066826     0.11000
H1243       H  0.10127893  0.71463053  0.75801072     0.11100
H1244       H  0.17713139  0.73006581  0.75834331     0.13000
H1245       H  0.19443078  0.72062775  0.78703789     0.09500
H1246       H  0.19752644  0.73227754  0.81756950     0.11600
H1247       H  0.11067216  0.75083686  0.81259922     0.08200
H1248       H  0.10822883  0.74029485  0.78246558     0.11000
C1249       C  0.15561731  0.65283533  0.62854684    -0.03600
C1250       C  0.13453021  0.62795049  0.61627929    -0.06200
C1251       C  0.13035805  0.59446628  0.61630426    -0.21300
C1252       C  0.14736020  0.58487509  0.62843563     0.24400
C1253       C  0.16813405  0.60939954  0.64094663    -0.18900
C1254       C  0.17222552  0.64310396  0.64098101    -0.08800
C1255       C  0.14239557  0.54902448  0.62742097    -0.19100
C1256       C  0.16565060  0.54043074  0.63343615    -0.23900
C1257       C  0.16174097  0.50522045  0.63115697     0.26500
C1258       C  0.17825769  0.49412320  0.64283551    -0.20700
C1259       C  0.17660506  0.46190632  0.64089055    -0.10300
C1260       C  0.15864995  0.44001442  0.62705003    -0.10900
C1261       C  0.14212942  0.45114070  0.61526292    -0.03800
C1262       C  0.14367299  0.48344490  0.61727188    -0.18900
H1263       H  0.12111867  0.63425899  0.60653300     0.10200
H1264       H  0.11409055  0.57607554  0.60660113     0.10200
H1265       H  0.18090050  0.60263577  0.65081856     0.09900
H1266       H  0.18838159  0.66148369  0.65069999     0.11000
H1267       H  0.11937715  0.52946391  0.62068881     0.11100
H1268       H  0.18860760  0.55975591  0.64027935     0.13000
H1269       H  0.19257236  0.51050587  0.65353308     0.09500
H1270       H  0.18975348  0.45436040  0.65022957     0.11600
H1271       H  0.12825429  0.43505594  0.60441769     0.08200
H1272       H  0.13153607  0.49159609  0.60767955     0.11000
C1273       C  0.16908495  0.94871072  0.62733455    -0.03600
C1274       C  0.18486193  0.97269002  0.64070723    -0.06200
C1275       C  0.18157711  0.00256028  0.64170714    -0.21300
C1276       C  0.16232424  0.00917294  0.62946030     0.24400
C1277       C  0.14698285  0.98551119  0.61590916    -0.18900
C1278       C  0.15024281  0.95560420  0.61490940    -0.08800
C1279       C  0.16015550  0.04166276  0.63100160    -0.19100
C1280       C  0.13575919  0.04673940  0.62319279    -0.23900
C1281       C  0.13489753  0.07998174  0.62440764     0.26500
C1282       C  0.11857747  0.08861235  0.61138879    -0.20700
C1283       C  0.11856193  0.12036564  0.61167160    -0.10300
C1284       C  0.13466377  0.14409062  0.62509995    -0.10900
C1285       C  0.14981283  0.13477021  0.63846304    -0.03800
C1286       C  0.14981217  0.10309287  0.63817238    -0.18900
H1287       H  0.19958870  0.96830756  0.65050907     0.10200
H1288       H  0.19395213  0.02048097  0.65219194     0.10200
H1289       H  0.13291912  0.99009336  0.60587063     0.09900
H1290       H  0.13797600  0.93789036  0.60435212     0.11000
H1291       H  0.17981325  0.06222593  0.63892462     0.11100
H1292       H  0.11620254  0.02641490  0.61514330     0.13000
H1293       H  0.10649667  0.07108012  0.60074439     0.09500
H1294       H  0.10644796  0.12654688  0.60122831     0.11600
H1295       H  0.16200754  0.15210033  0.64915982     0.08200
H1296       H  0.16135727  0.09687370  0.64882693     0.11000
C1297       C  0.37953570  0.19601852  0.31850653    -0.03600
C1298       C  0.40997390  0.20320654  0.30959241    -0.06200
C1299       C  0.41183777  0.20787313  0.29190547    -0.21300
C1300       C  0.38351466  0.20573000  0.28267118     0.24400
C1301       C  0.35357889  0.19998701  0.29167490    -0.18900
C1302       C  0.35173086  0.19537923  0.30935342    -0.08800
C1303       C  0.38490378  0.20602284  0.26369488    -0.19100
C1304       C  0.36348902  0.21161189  0.25348494    -0.23900
C1305       C  0.36086821  0.20593411  0.23472596     0.26500
C1306       C  0.32958845  0.19848002  0.22652949    -0.20700
C1307       C  0.32450635  0.18999550  0.20924931    -0.10300
C1308       C  0.35082340  0.18913352  0.19961085    -0.10900
C1309       C  0.38280563  0.19815955  0.20763759    -0.03800
C1310       C  0.38783675  0.20654497  0.22497221    -0.18900
H1311       H  0.43188427  0.20384733  0.31617151     0.10200
H1312       H  0.43515807  0.21210613  0.28533459     0.10200
H1313       H  0.33073734  0.19721317  0.28515039     0.09900
H1314       H  0.32772678  0.18963789  0.31572547     0.11000
H1315       H  0.40333243  0.19959575  0.25807148     0.11100
H1316       H  0.34517908  0.21820291  0.25910577     0.13000
H1317       H  0.30847459  0.19810890  0.23365842     0.09500
H1318       H  0.29959235  0.18341261  0.20354316     0.11600
H1319       H  0.40380024  0.19811132  0.20060929     0.08200
H1320       H  0.41280041  0.21329679  0.23061502     0.11000
C1321       C  0.31239770  0.04550241  0.46155451    -0.03600
C1322       C  0.33561357  0.03768002  0.47021502    -0.06200
C1323       C  0.32524262  0.01733325  0.48516080    -0.21300
C1324       C  0.29139007  0.00407217  0.49188192     0.24400
C1325       C  0.26836753  0.01248910  0.48336941    -0.18900
C1326       C  0.27872493  0.03279229  0.46843930    -0.08800
C1327       C  0.28166752  0.98199248  0.50775200    -0.19100
C1328       C  0.24887127  0.96359135  0.51420970    -0.23900
C1329       C  0.23895983  0.94107774  0.52989912     0.26500
C1330       C  0.20554601  0.92894025  0.53691521    -0.20700
C1331       C  0.19460436  0.90742735  0.55143208    -0.10300
C1332       C  0.21674135  0.89718295  0.55931745    -0.10900
C1333       C  0.25004406  0.90893429  0.55221396    -0.03800
C1334       C  0.26103994  0.93055666  0.53771513    -0.18900
H1335       H  0.36177027  0.04703024  0.46538426     0.10200
H1336       H  0.34375082  0.01163578  0.49142010     0.10200
H1337       H  0.24235520  0.00383498  0.48808586     0.09900
H1338       H  0.26009907  0.03838658  0.46224099     0.11000
H1339       H  0.30282456  0.98092138  0.51422093     0.11100
H1340       H  0.22770369  0.96477001  0.50783850     0.13000
H1341       H  0.18776033  0.93624840  0.53116194     0.09500
H1342       H  0.16872997  0.89881980  0.55646041     0.11600
H1343       H  0.26781108  0.90153329  0.55789596     0.08200
H1344       H  0.28662081  0.93834064  0.53265044     0.11000
C1345       C  0.20534960  0.12210263  0.39320819    -0.03600
C1346       C  0.18575630  0.11322603  0.40832683    -0.06200
C1347       C  0.15437024  0.11372808  0.40900947    -0.21300
C1348       C  0.14181918  0.12315708  0.39464706     0.24400
C1349       C  0.16080805  0.13087496  0.37934476    -0.18900
C1350       C  0.19229246  0.13059473  0.37868693    -0.08800
C1351       C  0.10862065  0.12396354  0.39608953    -0.19100
C1352       C  0.09952302  0.14201724  0.38529090    -0.23900
C1353       C  0.06646150  0.14318719  0.38646504     0.26500
C1354       C  0.06330222  0.16822475  0.37662517    -0.20700
C1355       C  0.03234807  0.16958674  0.37670493    -0.10300
C1356       C  0.00371848  0.14587672  0.38667441    -0.10900
C1357       C  0.00695066  0.12101332  0.39666403    -0.03800
C1358       C  0.03779935  0.11949477  0.39649468    -0.18900
H1359       H  0.19493166  0.10642471  0.41973986     0.10200
H1360       H  0.14008779  0.10721024  0.42090051     0.10200
H1361       H  0.15145476  0.13683781  0.36777325     0.09900
H1362       H  0.20637911  0.13698525  0.36674636     0.11000
H1363       H  0.09213524  0.11042960  0.40693296     0.11100
H1364       H  0.11758058  0.15779837  0.37530790     0.13000
H1365       H  0.08482799  0.18669897  0.36871120     0.09500
H1366       H  0.03079771  0.18907393  0.36885507     0.11600
H1367       H  0.98529064  0.10206097  0.40435511     0.08200
H1368       H  0.03846271  0.09912680  0.40393707     0.11000
C1369       C  0.70251134  0.11920990  0.38072291    -0.03600
C1370       C  0.67481954  0.09283135  0.39028756    -0.06200
C1371       C  0.64233914  0.09095521  0.39094052    -0.21300
C1372       C  0.63662396  0.11555891  0.38224891     0.24400
C1373       C  0.66388329  0.14129434  0.37214642    -0.18900
C1374       C  0.69646327  0.14303129  0.37138535    -0.08800
C1375       C  0.60183671  0.11302967  0.38416812    -0.19100
C1376       C  0.59598603  0.13990458  0.38140196    -0.23900
C1377       C  0.56145305  0.13758793  0.38417757     0.26500
C1378       C  0.55504632  0.16227313  0.37604748    -0.20700
C1379       C  0.52308378  0.16116029  0.37810407    -0.10300
C1380       C  0.49670313  0.13556719  0.38857835    -0.10900
C1381       C  0.50341545  0.11146498  0.39718200    -0.03800
C1382       C  0.53539023  0.11239216  0.39499952    -0.18900
H1383       H  0.67831155  0.07374756  0.39748982     0.10200
H1384       H  0.62177503  0.07059493  0.39863704     0.10200
H1385       H  0.66028287  0.16008210  0.36479020     0.09900
H1386       H  0.71713215  0.16351099  0.36379297     0.11000
H1387       H  0.58052604  0.08808238  0.38864379     0.11100
H1388       H  0.61720345  0.16483524  0.37683774     0.13000
H1389       H  0.57472040  0.18229245  0.36785769     0.09500
H1390       H  0.51906227  0.18047618  0.37145003     0.11600
H1391       H  0.48379832  0.09161417  0.40544625     0.08200
H1392       H  0.53960679  0.09364044  0.40201996     0.11000
C1393       C  0.84885831  0.60233716  0.19201155    -0.03600
C1394       C  0.82628175  0.57064695  0.20045570    -0.06200
C1395       C  0.83125767  0.56612479  0.21765035    -0.21300
C1396       C  0.85895112  0.59299124  0.22683903     0.24400
C1397       C  0.88200425  0.62450466  0.21832522    -0.18900
C1398       C  0.87704543  0.62903645  0.20110537    -0.08800
C1399       C  0.86078344  0.58816919  0.24550506    -0.19100
C1400       C  0.88939380  0.60772887  0.25513394    -0.23900
C1401       C  0.88919585  0.60620880  0.27407693     0.26500
C1402       C  0.91456889  0.63556325  0.28298618    -0.20700
C1403       C  0.91318573  0.63709079  0.30071047    -0.10300
C1404       C  0.88642731  0.60910026  0.30998603    -0.10900
C1405       C  0.86239311  0.57872849  0.30115459    -0.03800
C1406       C  0.86380746  0.57720879  0.28342383    -0.18900
H1407       H  0.80425706  0.54950297  0.19389129     0.10200
H1408       H  0.81296224  0.54169588  0.22389143     0.10200
H1409       H  0.90308429  0.64632594  0.22496313     0.09900
H1410       H  0.89477905  0.65390398  0.19505941     0.11000
H1411       H  0.83678124  0.56846599  0.25151973     0.11100
H1412       H  0.91341812  0.62739355  0.24910994     0.13000
H1413       H  0.93470441  0.65808698  0.27615226     0.09500
H1414       H  0.93227312  0.66084851  0.30705010     0.11600
H1415       H  0.84167749  0.55647522  0.30787418     0.08200
H1416       H  0.84463947  0.55344156  0.27717650     0.11000
C1417       C  0.86732809  0.00062122  0.38226385    -0.03600
C1418       C  0.85385238  0.97841430  0.36808964    -0.06200
C1419       C  0.85220421  0.94600271  0.36792577    -0.21300
C1420       C  0.86367112  0.93459656  0.38192884     0.24400
C1421       C  0.87815153  0.95708594  0.39600060    -0.18900
C1422       C  0.87996539  0.98981304  0.39614329    -0.08800
C1423       C  0.86020054  0.89928904  0.38098634    -0.19100
C1424       C  0.85986651  0.88035282  0.39457905    -0.23900
C1425       C  0.85545434  0.84476135  0.39297073     0.26500
C1426       C  0.87129550  0.83363939  0.40505255    -0.20700
C1427       C  0.86842900  0.80069346  0.40375818    -0.10300
C1428       C  0.84917068  0.77778388  0.39043754    -0.10900
C1429       C  0.83243469  0.78854953  0.37858923    -0.03800
C1430       C  0.83548349  0.82164781  0.37984804    -0.18900
H1431       H  0.84413125  0.98584915  0.35708631     0.10200
H1432       H  0.84130340  0.92944939  0.35685719     0.10200
H1433       H  0.88828449  0.94975312  0.40684976     0.09900
H1434       H  0.89072854  0.00635650  0.40721484     0.11000
H1435       H  0.85683225  0.88804952  0.36839822     0.11100
H1436       H  0.86381618  0.89129809  0.40724746     0.13000
H1437       H  0.88649769  0.85077728  0.41536920     0.09500
H1438       H  0.88155521  0.79331395  0.41318946     0.11600
H1439       H  0.81712423  0.77150453  0.36827609     0.08200
H1440       H  0.82186801  0.82885575  0.37063537     0.11000
C1441       C  0.84635708  0.27424879  0.38186479    -0.03600
C1442       C  0.81967420  0.27482952  0.37226964    -0.06200
C1443       C  0.81830003  0.30566849  0.37058363    -0.21300
C1444       C  0.84383553  0.33681378  0.37817661     0.24400
C1445       C  0.87039608  0.33623863  0.38795544    -0.18900
C1446       C  0.87158426  0.30522774  0.38978752    -0.08800
C1447       C  0.84101875  0.36887697  0.37614184    -0.19100
C1448       C  0.86865996  0.40159171  0.37737047    -0.23900
C1449       C  0.86595572  0.43385251  0.37650112     0.26500
C1450       C  0.89211154  0.46408460  0.38447489    -0.20700
C1451       C  0.89028370  0.49475704  0.38472781    -0.10300
C1452       C  0.86246208  0.49621058  0.37675045    -0.10900
C1453       C  0.83685372  0.46636628  0.36817039    -0.03800
C1454       C  0.83849784  0.43539416  0.36807367    -0.18900
H1455       H  0.79960129  0.25131295  0.36613293     0.10200
H1456       H  0.79735067  0.30526695  0.36317524     0.10200
H1457       H  0.88989168  0.35939101  0.39450766     0.09900
H1458       H  0.89235609  0.30556000  0.39731437     0.11000
H1459       H  0.81522085  0.36512003  0.37351898     0.11100
H1460       H  0.89442525  0.40515004  0.37987273     0.13000
H1461       H  0.91371156  0.46375739  0.39089888     0.09500
H1462       H  0.91066697  0.51736091  0.39130984     0.11600
H1463       H  0.81516102  0.46670925  0.36187241     0.08200
H1464       H  0.81838141  0.41294381  0.36133654     0.11000
C1465       C  0.98845477  0.77929224  0.38618799    -0.03600
C1466       C  0.01260809  0.78823306  0.37281639    -0.06200
C1467       C  0.04459059  0.81948063  0.37314148    -0.21300
C1468       C  0.05351212  0.84251005  0.38686484     0.24400
C1469       C  0.02913145  0.83418048  0.40009816    -0.18900
C1470       C  0.99690544  0.80280883  0.39975610    -0.08800
C1471       C  0.08841322  0.87481250  0.38662743    -0.19100
C1472       C  0.10509444  0.89327444  0.40056848    -0.23900
C1473       C  0.14070876  0.92452264  0.39974222     0.26500
C1474       C  0.15016490  0.95165290  0.41144928    -0.20700
C1475       C  0.18318012  0.98189845  0.41066450    -0.10300
C1476       C  0.20763665  0.98542809  0.39825070    -0.10900
C1477       C  0.19850163  0.95764243  0.38690021    -0.03800
C1478       C  0.16546707  0.92748506  0.38766275    -0.18900
H1479       H  0.00699233  0.77098237  0.36206254     0.10200
H1480       H  0.06272643  0.82540950  0.36271599     0.10200
H1481       H  0.03457294  0.85178674  0.41064621     0.09900
H1482       H  0.97875599  0.79690565  0.41015859     0.11000
H1483       H  0.10137914  0.88304058  0.37436815     0.11100
H1484       H  0.09241589  0.88594224  0.41289876     0.13000
H1485       H  0.13168669  0.94975478  0.42100327     0.09500
H1486       H  0.18934940  0.00266865  0.41968161     0.11600
H1487       H  0.21678829  0.95923113  0.37732379     0.08200
H1488       H  0.15955467  0.90646641  0.37885745     0.11000
C1489       C  0.71211895  0.48713082  0.37996805    -0.03600
C1490       C  0.70474890  0.46674943  0.36518339    -0.06200
C1491       C  0.67405897  0.43418220  0.36395227    -0.21300
C1492       C  0.64993551  0.42133675  0.37737740     0.24400
C1493       C  0.65762126  0.44137784  0.39230798    -0.18900
C1494       C  0.68823005  0.47396892  0.39352938    -0.08800
C1495       C  0.61758656  0.38658347  0.37560942    -0.19100
C1496       C  0.58807961  0.37794531  0.38426876    -0.23900
C1497       C  0.55519252  0.34330138  0.38364899     0.26500
C1498       C  0.52743607  0.33862481  0.39404109    -0.20700
C1499       C  0.49629009  0.30654198  0.39467926    -0.10300
C1500       C  0.49186602  0.27810223  0.38484766    -0.10900
C1501       C  0.51930982  0.28275275  0.37415221    -0.03800
C1502       C  0.55073926  0.31499009  0.37357388    -0.18900
H1503       H  0.72266025  0.47592678  0.35451276     0.10200
H1504       H  0.66899938  0.41909386  0.35240956     0.10200
H1505       H  0.64048270  0.43180273  0.40323922     0.09900
H1506       H  0.69330176  0.48867717  0.40519477     0.11000
H1507       H  0.61826017  0.36843995  0.36662276     0.11100
H1508       H  0.58770439  0.39753249  0.39240000     0.13000
H1509       H  0.52994854  0.35984390  0.40191332     0.09500
H1510       H  0.47566430  0.30405561  0.40298582     0.11600
H1511       H  0.51673695  0.26132328  0.36644144     0.08200
H1512       H  0.57123032  0.31718036  0.36533470     0.11000
C1513       C  0.64057611  0.82721221  0.80428223    -0.03600
C1514       C  0.66184269  0.85894334  0.79560674    -0.06200
C1515       C  0.65732183  0.86199440  0.77815345    -0.21300
C1516       C  0.63175080  0.83338523  0.76882786     0.24400
C1517       C  0.60971919  0.80188740  0.77765037    -0.18900
C1518       C  0.61410988  0.79891995  0.79512310    -0.08800
C1519       C  0.63050402  0.83743257  0.74994704    -0.19100
C1520       C  0.61145606  0.81083056  0.73909752    -0.23900
C1521       C  0.61474496  0.81385693  0.72015384     0.26500
C1522       C  0.58915863  0.78650060  0.71024162    -0.20700
C1523       C  0.59331803  0.78563463  0.69263171    -0.10300
C1524       C  0.62337107  0.81210326  0.68442949    -0.10900
C1525       C  0.64832638  0.84028104  0.69423625    -0.03800
C1526       C  0.64416057  0.84114902  0.71185236    -0.18900
H1527       H  0.68239666  0.88131921  0.80224292     0.10200
H1528       H  0.67462199  0.88664532  0.77180987     0.10200
H1529       H  0.58922594  0.77919125  0.77127784     0.09900
H1530       H  0.59721951  0.77403411  0.80136954     0.11000
H1531       H  0.64756740  0.86346465  0.74479699     0.11100
H1532       H  0.59350936  0.78492243  0.74407208     0.13000
H1533       H  0.56628504  0.76505052  0.71622920     0.09500
H1534       H  0.57353419  0.76348202  0.68556051     0.11600
H1535       H  0.67191263  0.86107459  0.68842028     0.08200
H1536       H  0.66500227  0.86239623  0.71888490     0.11000
C1537       C  0.30245562  0.42948478  0.62916394    -0.03600
C1538       C  0.30798776  0.45770787  0.63950938    -0.06200
C1539       C  0.34017690  0.48911605  0.63928732    -0.21300
C1540       C  0.36751007  0.49316652  0.62868881     0.24400
C1541       C  0.36239674  0.46449234  0.61880113    -0.18900
C1542       C  0.33024844  0.43313667  0.61900175    -0.08800
C1543       C  0.40091709  0.52747088  0.62850052    -0.19100
C1544       C  0.42390376  0.53873910  0.61543847    -0.23900
C1545       C  0.45673163  0.57366276  0.61474037     0.26500
C1546       C  0.48203804  0.57944494  0.60238537    -0.20700
C1547       C  0.51286090  0.61205015  0.60091746    -0.10300
C1548       C  0.51913524  0.63979669  0.61178526    -0.10900
C1549       C  0.49372430  0.63404225  0.62410480    -0.03800
C1550       C  0.46291655  0.60155847  0.62552723    -0.18900
H1551       H  0.28723300  0.45584614  0.64751764     0.10200
H1552       H  0.34350359  0.51061501  0.64718755     0.10200
H1553       H  0.38311127  0.46590744  0.61096512     0.09900
H1554       H  0.32712612  0.41179946  0.61104443     0.11000
H1555       H  0.40587432  0.54417786  0.63941722     0.11100
H1556       H  0.41850794  0.52189711  0.60451228     0.13000
H1557       H  0.47796602  0.55859763  0.59381012     0.09500
H1558       H  0.53181509  0.61544303  0.59130956     0.11600
H1559       H  0.49742592  0.65482299  0.63262819     0.08200
H1560       H  0.44395926  0.59897689  0.63489870     0.11000
C1561       C  0.00000727  0.15563265  0.61935079    -0.03600
C1562       C  0.97278405  0.14844831  0.63077384    -0.06200
C1563       C  0.94112349  0.11666046  0.63000466    -0.21300
C1564       C  0.93606682  0.09116003  0.61798158     0.24400
C1565       C  0.96292665  0.09856573  0.60628686    -0.18900
C1566       C  0.99452716  0.13042259  0.60698284    -0.08800
C1567       C  0.90218448  0.05759102  0.61783544    -0.19100
C1568       C  0.89868990  0.02706031  0.61234320    -0.23900
C1569       C  0.86513371  0.99288307  0.61263348     0.26500
C1570       C  0.86303912  0.96453138  0.60356466    -0.20700
C1571       C  0.83216269  0.93187882  0.60351425    -0.10300
C1572       C  0.80274196  0.92672935  0.61272596    -0.10900
C1573       C  0.80491227  0.95494105  0.62193633    -0.03800
C1574       C  0.83566081  0.98755687  0.62193619    -0.18900
H1575       H  0.97595750  0.16727527  0.64039651     0.10200
H1576       H  0.92065811  0.11173195  0.63902422     0.10200
H1577       H  0.95953754  0.08009251  0.59644646     0.09900
H1578       H  0.01474013  0.13516520  0.59785049     0.11000
H1579       H  0.87990429  0.05837130  0.62298073     0.11100
H1580       H  0.92151072  0.02681203  0.60746986     0.13000
H1581       H  0.88535207  0.96769209  0.59640731     0.09500
H1582       H  0.83144334  0.91060847  0.59637497     0.11600
H1583       H  0.78274348  0.95187383  0.62918363     0.08200
H1584       H  0.83603277  0.00804045  0.62952331     0.11000
C1585       C  0.52334636  0.79721467  0.61626087    -0.03600
C1586       C  0.51976021  0.82173795  0.60616203    -0.06200
C1587       C  0.49017379  0.82526208  0.60754692    -0.21300
C1588       C  0.46315263  0.80424386  0.61891813     0.24400
C1589       C  0.46675807  0.77986552  0.62919011    -0.18900
C1590       C  0.49652797  0.77641175  0.62784902    -0.08800
C1591       C  0.43218169  0.80918827  0.61961450    -0.19100
C1592       C  0.40077011  0.78548022  0.62608666    -0.23900
C1593       C  0.36957897  0.79010246  0.62567471     0.26500
C1594       C  0.34258363  0.77135960  0.63742914    -0.20700
C1595       C  0.31242151  0.77415349  0.63726449    -0.10300
C1596       C  0.30825076  0.79554349  0.62518189    -0.10900
C1597       C  0.33509834  0.81399923  0.61323715    -0.03800
C1598       C  0.36538450  0.81130645  0.61345554    -0.18900
H1599       H  0.53988224  0.83838101  0.59714815     0.10200
H1600       H  0.48826745  0.84437550  0.59954504     0.10200
H1601       H  0.44707788  0.76373964  0.63844904     0.09900
H1602       H  0.49849867  0.75740881  0.63589503     0.11000
H1603       H  0.43539078  0.83322065  0.61402789     0.11100
H1604       H  0.39733335  0.76157239  0.63191951     0.13000
H1605       H  0.34488317  0.75453252  0.64684589     0.09500
H1606       H  0.29223663  0.75928326  0.64658266     0.11600
H1607       H  0.33267914  0.83043799  0.60364308     0.08200
H1608       H  0.38494356  0.82524871  0.60377272     0.11000
C1609       C  0.80612767  0.78657720  0.61118067    -0.03600
C1610       C  0.83153135  0.80739832  0.59900900    -0.06200
C1611       C  0.86464520  0.81060215  0.59928339    -0.21300
C1612       C  0.87340106  0.79338013  0.61177409     0.24400
C1613       C  0.84780843  0.77198093  0.62379518    -0.18900
C1614       C  0.81461677  0.76872965  0.62351626    -0.08800
C1615       C  0.90918789  0.79797960  0.61151982    -0.19100
C1616       C  0.92456639  0.79269886  0.62519159    -0.23900
C1617       C  0.96057150  0.79778330  0.62515680     0.26500
C1618       C  0.96981558  0.78223636  0.63828866    -0.20700
C1619       C  0.00316053  0.78606709  0.63892406    -0.10300
C1620       C  0.02838565  0.80577231  0.62644432    -0.10900
C1621       C  0.01946341  0.82205937  0.61347643    -0.03800
C1622       C  0.98598810  0.81821561  0.61284657    -0.18900
H1623       H  0.82595760  0.82143984  0.58927109     0.10200
H1624       H  0.88368463  0.82697895  0.58978073     0.10200
H1625       H  0.85294879  0.75724976  0.63328992     0.09900
H1626       H  0.79562056  0.75221227  0.63299639     0.11000
H1627       H  0.92342938  0.80681564  0.59962858     0.11100
H1628       H  0.91027171  0.78404340  0.63708305     0.13000
H1629       H  0.95098868  0.76667355  0.64804000     0.09500
H1630       H  0.00897642  0.77317694  0.64915867     0.11600
H1631       H  0.03825983  0.83760456  0.60372471     0.08200
H1632       H  0.98049752  0.83167233  0.60281187     0.11000
C1633       C  0.71286533  0.74569877  0.54425714    -0.03600
C1634       C  0.74748176  0.76881365  0.53891555    -0.06200
C1635       C  0.76164367  0.76115278  0.52483858    -0.21300
C1636       C  0.74192281  0.73006326  0.51564353     0.24400
C1637       C  0.70700512  0.70707598  0.52070743    -0.18900
C1638       C  0.69269832  0.71482549  0.53485472    -0.08800
C1639       C  0.75887275  0.72357121  0.50072924    -0.19100
C1640       C  0.74774009  0.69181402  0.49365889    -0.23900
C1641       C  0.76507732  0.68511528  0.47891929     0.26500
C1642       C  0.74792246  0.65166816  0.47150533    -0.20700
C1643       C  0.76251033  0.64376474  0.45765744    -0.10300
C1644       C  0.79495429  0.66908133  0.45075464    -0.10900
C1645       C  0.81250028  0.70247586  0.45827595    -0.03800
C1646       C  0.79785814  0.71041706  0.47217706    -0.18900
H1647       H  0.76397243  0.79295037  0.54569330     0.10200
H1648       H  0.78843627  0.77956421  0.52123011     0.10200
H1649       H  0.69046136  0.68328915  0.51374229     0.09900
H1650       H  0.66591305  0.69652436  0.53847957     0.11000
H1651       H  0.78215047  0.74623575  0.49577940     0.11100
H1652       H  0.72470531  0.66920934  0.49889870     0.13000
H1653       H  0.72283106  0.63148321  0.47636809     0.09500
H1654       H  0.74808130  0.61770471  0.45229170     0.11600
H1655       H  0.83752466  0.72264343  0.45335964     0.08200
H1656       H  0.81262083  0.73637112  0.47750990     0.11000
loop_ 
_geom_bond_atom_site_label_1 
_geom_bond_atom_site_label_2 
_geom_bond_distance 
_geom_bond_site_symmetry_2 
_ccdc_geom_bond_type 
Zr1           O2   2.441       .  S
Zr1           O3   2.442       .  S
Zr1           O4   2.453       .  S
Zr1           O7   2.423       .  S
Zr1           O9   2.377       .  S
Zr1          O10   2.389       .  S
Zr1          O11   2.404       .  S
Zr1          O12   2.410       .  S
O2           H58   0.990       .  S
O2           H66   0.990       .  S
O3           C23   1.286       .  A
O4           C25   1.288       .  A
O5          Zr15   2.450       .  S
O5           C24   1.289       .  A
O6          Zr14   2.433       .  S
O6           C25   1.285       .  A
O7           C24   1.284       .  A
O8          Zr16   2.419       .  S
O8           C23   1.282       .  A
O9          Zr14   2.395       .  S
O9          Zr16   2.382       .  S
O10         Zr15   2.402       .  S
O10         Zr16   2.373       .  S
O10          H45   0.966       .  S
O11         Zr14   2.399       .  S
O11         Zr31   2.389       .  S
O11          H48   0.965       .  S
O12         Zr15   2.399       .  S
O12         Zr31   2.398       .  S
Zr13         O38   2.441       .  S
Zr13         O32   2.424       .  S
Zr13         O40   2.423       .  S
Zr13         O28   2.431       .  S
Zr13         O19   2.402       .  S
Zr13         O20   2.401       .  S
Zr13         O21   2.377       .  S
Zr13         O22   2.382       .  S
Zr14         O33   2.437       .  S
Zr14         O26   2.434       .  S
Zr14         O27   2.431       .  S
Zr14         O20   2.398       .  S
Zr14         O21   2.386       .  S
Zr15         O17   2.434       .  S
Zr15         O39   2.437       .  S
Zr15         O41   2.470       .  S
Zr15         O19   2.396       .  S
Zr15         O22   2.388       .  S
Zr16         O42   2.435       .  S
Zr16         O43   2.436       .  S
Zr16         O18   2.437       .  S
Zr16         O19   2.399       .  S
Zr16         O20   2.393       .  S
O17          H54   0.990       .  S
O18          H49   0.990       .  S
O18          H63   0.990       .  S
O20          H46   0.965       .  S
O21         Zr31   2.374       .  S
O22         Zr31   2.370       .  S
O22          H47   0.965       .  S
C23        C1585   1.488       .  S
C24        C1548   1.490       .  S
C25        C1524   1.491       .  S
O26          H62   0.990       .  S
O27          C29   1.286       .  A
O28          C29   1.285       .  A
C29        C1572   1.482       .  S
O30         Zr31   2.438       .  S
O30          H59   0.990       .  S
Zr31         O34   2.436       .  S
Zr31         O35   2.439       .  S
Zr31         O36   2.431       .  S
O32          C37   1.284       .  A
O33          H50   0.990       .  S
O33          H65   0.990       .  S
O34          H51   0.990       .  S
O35          H55   0.990       .  S
O35          H64   0.990       .  S
O36          C37   1.284       .  A
C37        C1609   1.485       .  S
O38          H57   0.990       .  S
O38          H61   0.990       .  S
O39          H53   0.990       .  S
O39          H60   0.990       .  S
O40          C44   1.284       .  A
O41          C44   1.292       .  A
O42          H52   0.990       .  S
O43          H56   0.990       .  S
C44        C1633   1.497       .  S
Zr67         O68   2.441       .  S
Zr67         O69   2.448       .  S
Zr67         O70   2.439       .  S
Zr67         O73   2.417       .  S
Zr67         O75   2.375       .  S
Zr67         O76   2.381       .  S
Zr67         O77   2.408       .  S
Zr67         O78   2.409       .  S
O68         H124   0.991       .  S
O68         H132   0.990       .  S
O69          C89   1.286       .  A
O70          C91   1.285       .  A
O71         Zr81   2.433       .  S
O71          C90   1.286       .  A
O72         Zr80   2.433       .  S
O72          C91   1.285       .  A
O73          C90   1.282       .  A
O74         Zr82   2.412       .  S
O74          C89   1.281       .  A
O75         Zr80   2.388       .  S
O75         Zr82   2.381       .  S
O76         Zr81   2.390       .  S
O76         Zr82   2.372       .  S
O76         H111   0.966       .  S
O77         Zr80   2.394       .  S
O77         Zr97   2.395       .  S
O77         H114   0.965       .  S
O78         Zr81   2.391       .  S
O78         Zr97   2.406       .  S
Zr79        O104   2.438       .  S
Zr79         O98   2.413       .  S
Zr79        O106   2.457       .  S
Zr79         O94   2.444       .  S
Zr79         O85   2.398       .  S
Zr79         O86   2.404       .  S
Zr79         O87   2.381       .  S
Zr79         O88   2.383       .  S
Zr80         O99   2.437       .  S
Zr80         O92   2.434       .  S
Zr80         O93   2.413       .  S
Zr80         O86   2.399       .  S
Zr80         O87   2.387       .  S
Zr81         O83   2.435       .  S
Zr81        O105   2.435       .  S
Zr81        O107   2.434       .  S
Zr81         O85   2.394       .  S
Zr81         O88   2.387       .  S
Zr82        O108   2.436       .  S
Zr82        O109   2.435       .  S
Zr82         O84   2.438       .  S
Zr82         O85   2.400       .  S
Zr82         O86   2.385       .  S
O83         H120   0.990       .  S
O84         H115   0.990       .  S
O84         H129   0.990       .  S
O86         H112   0.966       .  S
O87         Zr97   2.367       .  S
O88         Zr97   2.366       .  S
O88         H113   0.965       .  S
C89        C1452   1.483       .  S
C90        C1489   1.482       .  S
C91        C1404   1.487       .  S
O92         H128   0.990       .  S
O93          C95   1.283       .  A
O94          C95   1.288       .  A
C95        C1465   1.482       .  S
O96         Zr97   2.439       .  S
O96         H125   0.990       .  S
Zr97        O100   2.437       .  S
Zr97        O101   2.438       .  S
Zr97        O102   2.447       .  S
O98         C103   1.282       .  A
O99         H116   0.990       .  S
O99         H131   0.990       .  S
O100        H117   0.990       .  S
O101        H121   0.990       .  S
O101        H130   0.990       .  S
O102        C103   1.287       .  A
C103       C1428   1.486       .  S
O104        H123   0.990       .  S
O104        H127   0.990       .  S
O105        H119   0.990       .  S
O105        H126   0.990       .  S
O106        C110   1.291       .  A
O107        C110   1.286       .  A
O108        H118   0.990       .  S
O109        H122   0.990       .  S
C110       C1644   1.495       .  S
Zr133       O134   2.440       .  S
Zr133       O135   2.437       .  S
Zr133       O136   2.449       .  S
Zr133       O139   2.423       .  S
Zr133       O141   2.379       .  S
Zr133       O142   2.384       .  S
Zr133       O143   2.402       .  S
Zr133       O144   2.406       .  S
O134        H190   0.990       .  S
O134        H198   0.990       .  S
O135        C155   1.285       .  A
O136        C157   1.287       .  A
O137       Zr147   2.453       .  S
O137        C156   1.289       .  A
O138       Zr146   2.428       .  S
O138        C157   1.284       .  A
O139        C156   1.284       .  A
O140       Zr148   2.416       .  S
O140        C155   1.282       .  A
O141       Zr146   2.392       .  S
O141       Zr148   2.380       .  S
O142       Zr147   2.392       .  S
O142       Zr148   2.372       .  S
O142        H177   0.966       .  S
O143       Zr146   2.397       .  S
O143       Zr163   2.391       .  S
O143        H180   0.965       .  S
O144       Zr147   2.397       .  S
O144       Zr163   2.397       .  S
Zr145       O170   2.441       .  S
Zr145       O164   2.420       .  S
Zr145       O172   2.431       .  S
Zr145       O160   2.437       .  S
Zr145       O151   2.400       .  S
Zr145       O152   2.399       .  S
Zr145       O153   2.377       .  S
Zr145       O154   2.382       .  S
Zr146       O165   2.439       .  S
Zr146       O158   2.435       .  S
Zr146       O159   2.429       .  S
Zr146       O152   2.394       .  S
Zr146       O153   2.386       .  S
Zr147       O149   2.435       .  S
Zr147       O171   2.435       .  S
Zr147       O173   2.459       .  S
Zr147       O151   2.397       .  S
Zr147       O154   2.389       .  S
Zr148       O174   2.435       .  S
Zr148       O175   2.435       .  S
Zr148       O150   2.437       .  S
Zr148       O151   2.398       .  S
Zr148       O152   2.392       .  S
O149        H186   0.990       .  S
O150        H181   0.990       .  S
O150        H195   0.990       .  S
O152        H178   0.966       .  S
O153       Zr163   2.373       .  S
O154       Zr163   2.369       .  S
O154        H179   0.965       .  S
C155       C1500   1.482       .  S
C156       C1380   1.488       .  S
C157       C1297   1.489       .  S
O158        H194   0.990       .  S
O159        C161   1.285       .  A
O160        C161   1.287       .  A
C161       C1345   1.485       .  S
O162       Zr163   2.438       .  S
O162        H191   0.990       .  S
Zr163       O166   2.437       .  S
Zr163       O167   2.438       .  S
Zr163       O168   2.435       .  S
O164        C169   1.283       .  A
O165        H182   0.990       .  S
O165        H197   0.990       .  S
O166        H183   0.990       .  S
O167        H187   0.990       .  S
O167        H196   0.990       .  S
O168        C169   1.286       .  A
C169       C1476   1.484   1_545  S
O170        H189   0.990       .  S
O170        H193   0.990       .  S
O171        H185   0.990       .  S
O171        H192   0.990       .  S
O172        C176   1.286       .  A
O173        C176   1.291       .  A
O174        H184   0.990       .  S
O175        H188   0.990       .  S
C176       C1321   1.495       .  S
Zr199       O200   2.441       .  S
Zr199       O201   2.444       .  S
Zr199       O202   2.446       .  S
Zr199       O205   2.430       .  S
Zr199       O207   2.382       .  S
Zr199       O208   2.384       .  S
Zr199       O209   2.411       .  S
Zr199       O210   2.410       .  S
O200        H256   0.991       .  S
O200        H264   0.990       .  S
O201        C221   1.286       .  A
O202        C223   1.286       .  A
O203       Zr213   2.441       .  S
O203        C222   1.287       .  A
O204       Zr212   2.424       .  S
O204        C223   1.283       .  A
O205        C222   1.285       .  A
O206       Zr214   2.411       .  S
O206        C221   1.281       .  A
O207       Zr212   2.390       .  S
O207       Zr214   2.381       .  S
O208       Zr213   2.392       .  S
O208       Zr214   2.369       .  S
O208        H243   0.966       .  S
O209       Zr212   2.400       .  S
O209       Zr229   2.394       .  S
O209        H246   0.965       .  S
O210       Zr213   2.394       .  S
O210       Zr229   2.402       .  S
Zr211       O236   2.442       .  S
Zr211       O230   2.425       .  S
Zr211       O238   2.440       .  S
Zr211       O226   2.450       .  S
Zr211       O217   2.403       .  S
Zr211       O218   2.399       .  S
Zr211       O219   2.378       .  S
Zr211       O220   2.389       .  S
Zr212       O231   2.438       .  S
Zr212       O224   2.434       .  S
Zr212       O225   2.422       .  S
Zr212       O218   2.392       .  S
Zr212       O219   2.386       .  S
Zr213       O215   2.433       .  S
Zr213       O237   2.436       .  S
Zr213       O239   2.438       .  S
Zr213       O217   2.396       .  S
Zr213       O220   2.393       .  S
Zr214       O240   2.435       .  S
Zr214       O241   2.435       .  S
Zr214       O216   2.440       .  S
Zr214       O217   2.394       .  S
Zr214       O218   2.389       .  S
O215        H252   0.990       .  S
O216        H247   0.990       .  S
O216        H261   0.990       .  S
O218        H244   0.965       .  S
O219       Zr229   2.374       .  S
O220       Zr229   2.369       .  S
O220        H245   0.966       .  S
C221       C1249   1.486       .  S
C222       C1596   1.489       .  S
C223       C1225   1.487       .  S
O224        H260   0.990       .  S
O225        C227   1.284       .  A
O226        C227   1.289       .  A
C227       C1620   1.488       .  S
O228       Zr229   2.439       .  S
O228        H257   0.990       .  S
Zr229       O232   2.436       .  S
Zr229       O233   2.440       .  S
Zr229       O234   2.435       .  S
O230        C235   1.284       .  A
O231        H248   0.990       .  S
O231        H263   0.990       .  S
O232        H249   0.990       .  S
O233        H253   0.990       .  S
O233        H262   0.989       .  S
O234        C235   1.285       .  A
C235       C1273   1.486       .  S
O236        H255   0.990       .  S
O236        H259   0.991       .  S
O237        H251   0.990       .  S
O237        H258   0.990       .  S
O238        C242   1.288       .  A
O239        C242   1.287       .  A
O240        H250   0.990       .  S
O241        H254   0.990       .  S
C242       C1332   1.490       .  S
Zr265       O266   2.442       .  S
Zr265       O267   2.435       .  S
Zr265       O268   2.444       .  S
Zr265       O271   2.416       .  S
Zr265       O273   2.378       .  S
Zr265       O274   2.385       .  S
Zr265       O275   2.405       .  S
Zr265       O276   2.404       .  S
O266        H322   0.991       .  S
O266        H330   0.990       .  S
O267        C287   1.284       .  A
O268        C289   1.286       .  A
O269       Zr279   2.440       .  S
O269        C288   1.287       .  A
O270       Zr278   2.421       .  S
O270        C289   1.283       .  A
O271        C288   1.283       .  A
O272       Zr280   2.422       .  S
O272        C287   1.282       .  A
O273       Zr278   2.391       .  S
O273       Zr280   2.382       .  S
O274       Zr279   2.391       .  S
O274       Zr280   2.372       .  S
O274        H309   0.966       .  S
O275       Zr278   2.400       .  S
O275       Zr295   2.395       .  S
O275        H312   0.965       .  S
O276       Zr279   2.396       .  S
O276       Zr295   2.394       .  S
Zr277       O302   2.442       .  S
Zr277       O296   2.419       .  S
Zr277       O304   2.427       .  S
Zr277       O292   2.442       .  S
Zr277       O283   2.402       .  S
Zr277       O284   2.398       .  S
Zr277       O285   2.375       .  S
Zr277       O286   2.385       .  S
Zr278       O297   2.437       .  S
Zr278       O290   2.435       .  S
Zr278       O291   2.418       .  S
Zr278       O284   2.392       .  S
Zr278       O285   2.386       .  S
Zr279       O281   2.435       .  S
Zr279       O303   2.436       .  S
Zr279       O305   2.445       .  S
Zr279       O283   2.393       .  S
Zr279       O286   2.390       .  S
Zr280       O306   2.436       .  S
Zr280       O307   2.435       .  S
Zr280       O282   2.435       .  S
Zr280       O283   2.396       .  S
Zr280       O284   2.396       .  S
O281        H318   0.990       .  S
O282        H313   0.990       .  S
O282        H327   0.990       .  S
O284        H310   0.966       .  S
O285       Zr295   2.374       .  S
O286       Zr295   2.372       .  S
O286        H311   0.966       .  S
C287       C1537   1.486       .  S
C288       C1260   1.484       .  S
C289       C1177   1.484       .  S
O290        H326   0.990       .  S
O291        C293   1.283       .  A
O292        C293   1.287       .  A
C293       C1284   1.485       .  S
O294       Zr295   2.439       .  S
O294        H323   0.990       .  S
Zr295       O298   2.436       .  S
Zr295       O299   2.439       .  S
Zr295       O300   2.435       .  S
O296        C301   1.283       .  A
O297        H314   0.990       .  S
O297        H329   0.990       .  S
O298        H315   0.990       .  S
O299        H319   0.990       .  S
O299        H328   0.990       .  S
O300        C301   1.285       .  A
C301       C1561   1.484       .  S
O302        H321   0.990       .  S
O302        H325   0.990       .  S
O303        H317   0.990       .  S
O303        H324   0.990       .  S
O304        C308   1.285       .  A
O305        C308   1.288       .  A
O306        H316   0.990       .  S
O307        H320   0.990       .  S
C308       C1212   1.482       .  S
Zr331       O332   2.441       .  S
Zr331       O333   2.445       .  S
Zr331       O334   2.435       .  S
Zr331       O337   2.413       .  S
Zr331       O339   2.376       .  S
Zr331       O340   2.381       .  S
Zr331       O341   2.404       .  S
Zr331       O342   2.406       .  S
O332        H388   0.990       .  S
O332        H396   0.990       .  S
O333        C353   1.286       .  A
O334        C355   1.284       .  A
O335       Zr345   2.441       .  S
O335        C354   1.287       .  A
O336       Zr344   2.439       .  S
O336        C355   1.285       .  A
O337        C354   1.282       .  A
O338       Zr346   2.417       .  S
O338        C353   1.282       .  A
O339       Zr344   2.390       .  S
O339       Zr346   2.381       .  S
O340       Zr345   2.389       .  S
O340       Zr346   2.375       .  S
O340        H375   0.966       .  S
O341       Zr344   2.393       .  S
O341       Zr361   2.397       .  S
O341        H378   0.965       .  S
O342       Zr345   2.389       .  S
O342       Zr361   2.398       .  S
Zr343       O368   2.442       .  S
Zr343       O362   2.419       .  S
Zr343       O370   2.445       .  S
Zr343       O358   2.447       .  S
Zr343       O349   2.401       .  S
Zr343       O350   2.403       .  S
Zr343       O351   2.380       .  S
Zr343       O352   2.386       .  S
Zr344       O363   2.437       .  S
Zr344       O356   2.437       .  S
Zr344       O357   2.422       .  S
Zr344       O350   2.398       .  S
Zr344       O351   2.388       .  S
Zr345       O347   2.434       .  S
Zr345       O369   2.436       .  S
Zr345       O371   2.435       .  S
Zr345       O349   2.395       .  S
Zr345       O352   2.389       .  S
Zr346       O372   2.437       .  S
Zr346       O373   2.436       .  S
Zr346       O348   2.436       .  S
Zr346       O349   2.393       .  S
Zr346       O350   2.390       .  S
O347        H384   0.990       .  S
O348        H379   0.990       .  S
O348        H393   0.990       .  S
O350        H376   0.966       .  S
O351       Zr361   2.373       .  S
O352       Zr361   2.373       .  S
O352        H377   0.966       .  S
C353       C1369   1.487       .  S
C354       C1441   1.480       .  S
C355       C1164   1.487       .  S
O356        H392   0.990       .  S
O357        C359   1.285       .  A
O358        C359   1.288       .  A
C359       C1417   1.486       .  S
O360       Zr361   2.439       .  S
O360        H389   0.990       .  S
Zr361       O364   2.436       .  S
Zr361       O365   2.439       .  S
Zr361       O366   2.435       .  S
O362        C367   1.283       .  A
O363        H380   0.990       .  S
O363        H395   0.990       .  S
O364        H381   0.990       .  S
O365        H385   0.990       .  S
O365        H394   0.990       .  S
O366        C367   1.285       .  A
C367       C1356   1.484   1_655  S
O368        H387   0.990       .  S
O368        H391   0.990       .  S
O369        H383   0.990       .  S
O369        H390   0.990       .  S
O370        C374   1.288       .  A
O371        C374   1.286       .  A
O372        H382   0.990       .  S
O373        H386   0.990       .  S
C374       C1201   1.481       .  S
Zr397       O398   2.438       .  S
Zr397       O399   2.413       .  S
Zr397       O400   2.441       .  S
Zr397       O403   2.433       .  S
Zr397       O405   2.380       .  S
Zr397       O406   2.383       .  S
Zr397       O407   2.399       .  S
Zr397       O408   2.398       .  S
O398        H454   0.991       .  S
O398        H462   0.990       .  S
O399        C419   1.281       .  A
O400        C421   1.287       .  A
O401       Zr411   2.425       .  S
O401        C420   1.284       .  A
O402       Zr410   2.434       .  S
O402        C421   1.286       .  A
O403        C420   1.286       .  A
O404       Zr412   2.454       .  S
O404        C419   1.288       .  A
O405       Zr410   2.393       .  S
O405       Zr412   2.370       .  S
O406       Zr411   2.392       .  S
O406       Zr412   2.373       .  S
O406        H441   0.965       .  S
O407       Zr410   2.400       .  S
O407       Zr427   2.394       .  S
O407        H444   0.966       .  S
O408       Zr411   2.393       .  S
O408       Zr427   2.386       .  S
Zr409       O434   2.448       .  S
Zr409       O428   2.454       .  S
Zr409       O436   2.427       .  S
Zr409       O424   2.420       .  S
Zr409       O415   2.404       .  S
Zr409       O416   2.412       .  S
Zr409       O417   2.374       .  S
Zr409       O418   2.382       .  S
Zr410       O429   2.436       .  S
Zr410       O422   2.434       .  S
Zr410       O423   2.441       .  S
Zr410       O416   2.392       .  S
Zr410       O417   2.382       .  S
Zr411       O413   2.436       .  S
Zr411       O435   2.438       .  S
Zr411       O437   2.442       .  S
Zr411       O415   2.385       .  S
Zr411       O418   2.385       .  S
Zr412       O438   2.436       .  S
Zr412       O439   2.436       .  S
Zr412       O414   2.436       .  S
Zr412       O415   2.401       .  S
Zr412       O416   2.410       .  S
O413        H450   0.990       .  S
O414        H445   0.990       .  S
O414        H459   0.990       .  S
O416        H442   0.967       .  S
O417       Zr427   2.373       .  S
O418       Zr427   2.383       .  S
O418        H443   0.966       .  S
C419       C1116   1.490       .  S
C420       C1057   1.483       .  S
C421       C1129   1.490       .  S
O422        H458   0.990       .  S
O423        C425   1.287       .  A
O424        C425   1.282       .  A
C425       C1033   1.484       .  S
O426       Zr427   2.438       .  S
O426        H455   0.990       .  S
Zr427       O430   2.436       .  S
Zr427       O431   2.439       .  S
Zr427       O432   2.411       .  S
O428        C433   1.289       .  A
O429        H446   0.990       .  S
O429        H461   0.990       .  S
O430        H447   0.990       .  S
O431        H451   0.990       .  S
O431        H460   0.990       .  S
O432        C433   1.282       .  A
C433       C1081   1.489       .  S
O434        H453   0.990       .  S
O434        H457   0.990       .  S
O435        H449   0.990       .  S
O435        H456   0.990       .  S
O436        C440   1.284       .  A
O437        C440   1.287       .  A
O438        H448   0.989       .  S
O439        H452   0.990       .  S
C440       C1513   1.488       .  S
Zr463       O464   2.438       .  S
Zr463       O465   2.423       .  S
Zr463       O466   2.432       .  S
Zr463       O469   2.437       .  S
Zr463       O471   2.382       .  S
Zr463       O472   2.382       .  S
Zr463       O473   2.403       .  S
Zr463       O474   2.395       .  S
O464        H520   0.990       .  S
O464        H528   0.990       .  S
O465        C485   1.283       .  A
O466        C487   1.286       .  A
O467       Zr477   2.419       .  S
O467        C486   1.283       .  A
O468       Zr476   2.443       .  S
O468        C487   1.288       .  A
O469        C486   1.287       .  A
O470       Zr478   2.430       .  S
O470        C485   1.284       .  A
O471       Zr476   2.390       .  S
O471       Zr478   2.368       .  S
O472       Zr477   2.388       .  S
O472       Zr478   2.373       .  S
O472        H507   0.966       .  S
O473       Zr476   2.400       .  S
O473       Zr493   2.399       .  S
O473        H510   0.966       .  S
O474       Zr477   2.390       .  S
O474       Zr493   2.388       .  S
Zr475       O500   2.444       .  S
Zr475       O494   2.444       .  S
Zr475       O502   2.425       .  S
Zr475       O490   2.410       .  S
Zr475       O481   2.400       .  S
Zr475       O482   2.410       .  S
Zr475       O483   2.375       .  S
Zr475       O484   2.377       .  S
Zr476       O495   2.434       .  S
Zr476       O488   2.436       .  S
Zr476       O489   2.448       .  S
Zr476       O482   2.396       .  S
Zr476       O483   2.385       .  S
Zr477       O479   2.435       .  S
Zr477       O501   2.437       .  S
Zr477       O503   2.430       .  S
Zr477       O481   2.387       .  S
Zr477       O484   2.382       .  S
Zr478       O504   2.434       .  S
Zr478       O505   2.435       .  S
Zr478       O480   2.436       .  S
Zr478       O481   2.397       .  S
Zr478       O482   2.401       .  S
O479        H516   0.990       .  S
O480        H511   0.990       .  S
O480        H525   0.990       .  S
O482        H508   0.967       .  S
O483       Zr493   2.371       .  S
O484       Zr493   2.378       .  S
O484        H509   0.966       .  S
C485        C985   1.484       .  S
C486        C948   1.483       .  S
C487       C1140   1.490       .  S
O488        H524   0.990       .  S
O489        C491   1.288       .  A
O490        C491   1.282       .  A
C491        C972   1.481       .  S
O492       Zr493   2.438       .  S
O492        H521   0.990       .  S
Zr493       O496   2.436       .  S
Zr493       O497   2.439       .  S
Zr493       O498   2.414       .  S
O494        C499   1.287       .  A
O495        H512   0.990       .  S
O495        H527   0.990       .  S
O496        H513   0.990       .  S
O497        H517   0.990       .  S
O497        H526   0.990       .  S
O498        C499   1.282       .  A
C499       C1009   1.485       .  S
O500        H519   0.990       .  S
O500        H523   0.990       .  S
O501        H515   0.990       .  S
O501        H522   0.990       .  S
O502        C506   1.284       .  A
O503        C506   1.285       .  A
O504        H514   0.990       .  S
O505        H518   0.990       .  S
C506       C1393   1.484       .  S
Zr529       O530   2.439       .  S
Zr529       O531   2.411       .  S
Zr529       O532   2.447       .  S
Zr529       O535   2.447       .  S
Zr529       O537   2.383       .  S
Zr529       O538   2.388       .  S
Zr529       O539   2.401       .  S
Zr529       O540   2.396       .  S
O530        H586   0.991       .  S
O530        H594   0.990       .  S
O531        C551   1.281       .  A
O532        C553   1.288       .  A
O533       Zr543   2.416       .  S
O533        C552   1.283       .  A
O534       Zr542   2.438       .  S
O534        C553   1.286       .  A
O535        C552   1.289       .  A
O536       Zr544   2.435       .  S
O536        C551   1.285       .  A
O537       Zr542   2.393       .  S
O537       Zr544   2.374       .  S
O538       Zr543   2.390       .  S
O538       Zr544   2.371       .  S
O538        H573   0.966       .  S
O539       Zr542   2.404       .  S
O539       Zr559   2.393       .  S
O539        H576   0.965       .  S
O540       Zr543   2.394       .  S
O540       Zr559   2.385       .  S
Zr541       O566   2.448       .  S
Zr541       O560   2.445       .  S
Zr541       O568   2.443       .  S
Zr541       O556   2.422       .  S
Zr541       O547   2.400       .  S
Zr541       O548   2.410       .  S
Zr541       O549   2.379       .  S
Zr541       O550   2.378       .  S
Zr542       O561   2.436       .  S
Zr542       O554   2.434       .  S
Zr542       O555   2.445       .  S
Zr542       O548   2.398       .  S
Zr542       O549   2.386       .  S
Zr543       O545   2.435       .  S
Zr543       O567   2.438       .  S
Zr543       O569   2.431       .  S
Zr543       O547   2.386       .  S
Zr543       O550   2.382       .  S
Zr544       O570   2.436       .  S
Zr544       O571   2.435       .  S
Zr544       O546   2.435       .  S
Zr544       O547   2.395       .  S
Zr544       O548   2.404       .  S
O545        H582   0.990       .  S
O546        H577   0.991   1_545  S
O546        H591   0.990       .  S
O548        H574   0.965       .  S
O549       Zr559   2.374       .  S
O550       Zr559   2.383       .  S
O550        H575   0.967       .  S
C551        C937   1.481   1_545  S
C552        C900   1.486       .  S
C553        C876   1.494       .  S
O554        H590   0.990       .  S
O555        C557   1.288       .  A
O556        C557   1.283       .  A
C557        C924   1.488       .  S
O558       Zr559   2.439       .  S
O558        H587   0.990       .  S
Zr559       O562   2.436       .  S
Zr559       O563   2.442       .  S
Zr559       O564   2.401       .  S
O560        C565   1.287       .  A
O561        H578   0.990       .  S
O561        H593   0.990       .  S
O562        H579   0.990       .  S
O563        H583   0.990       .  S
O563        H592   0.989       .  S
O564        C565   1.279       .  A
C565        C961   1.481       .  S
O566        H585   0.990       .  S
O566        H589   0.990       .  S
O567        H581   0.990       .  S
O567        H588   0.990       .  S
O568        C572   1.287       .  A
O569        C572   1.285       .  A
O570        H580   0.990       .  S
O571        H584   0.990       .  S
C572       C1308   1.490       .  S
Zr595       O596   2.438       .  S
Zr595       O597   2.425       .  S
Zr595       O598   2.444       .  S
Zr595       O601   2.451       .  S
Zr595       O603   2.384       .  S
Zr595       O604   2.384       .  S
Zr595       O605   2.409       .  S
Zr595       O606   2.404       .  S
O596        H652   0.990       .  S
O596        H660   0.990       .  S
O597        C617   1.284       .  A
O598        C619   1.287       .  A
O599       Zr609   2.421       .  S
O599        C618   1.284       .  A
O600       Zr608   2.438       .  S
O600        C619   1.287       .  A
O601        C618   1.289       .  A
O602       Zr610   2.432       .  S
O602        C617   1.284       .  A
O603       Zr608   2.394       .  S
O603       Zr610   2.369       .  S
O604       Zr609   2.387       .  S
O604       Zr610   2.373       .  S
O604        H639   0.966       .  S
O605       Zr608   2.403       .  S
O605       Zr625   2.396       .  S
O605        H642   0.966       .  S
O606       Zr609   2.389       .  S
O606       Zr625   2.395       .  S
Zr607       O632   2.447       .  S
Zr607       O626   2.436       .  S
Zr607       O634   2.433       .  S
Zr607       O622   2.416       .  S
Zr607       O613   2.399       .  S
Zr607       O614   2.407       .  S
Zr607       O615   2.380       .  S
Zr607       O616   2.381       .  S
Zr608       O627   2.436       .  S
Zr608       O620   2.434       .  S
Zr608       O621   2.459       .  S
Zr608       O614   2.396       .  S
Zr608       O615   2.384       .  S
Zr609       O611   2.435       .  S
Zr609       O633   2.438       .  S
Zr609       O635   2.428       .  S
Zr609       O613   2.384       .  S
Zr609       O616   2.382       .  S
Zr610       O636   2.435       .  S
Zr610       O637   2.435       .  S
Zr610       O612   2.436       .  S
Zr610       O613   2.397       .  S
Zr610       O614   2.400       .  S
O611        H648   0.990       .  S
O612        H643   0.990       .  S
O612        H657   0.990       .  S
O614        H640   0.966       .  S
O615       Zr625   2.374       .  S
O616       Zr625   2.382       .  S
O616        H641   0.966       .  S
C617        C852   1.485       .  S
C618       C1105   1.490       .  S
C619        C865   1.491       .  S
O620        H656   0.990       .  S
O621        C623   1.290       .  A
O622        C623   1.282       .  A
C623       C1092   1.491       .  S
O624       Zr625   2.440       .  S
O624        H653   0.990       .  S
Zr625       O628   2.437       .  S
Zr625       O629   2.441       .  S
Zr625       O630   2.423       .  S
O626        C631   1.286       .  A
O627        H644   0.990       .  S
O627        H659   0.990       .  S
O628        H645   0.990       .  S
O629        H649   0.991       .  S
O629        H658   0.989       .  S
O630        C631   1.283       .  A
C631        C828   1.485       .  S
O632        H651   0.990       .  S
O632        H655   0.990       .  S
O633        H647   0.990       .  S
O633        H654   0.990       .  S
O634        C638   1.285       .  A
O635        C638   1.285       .  A
O636        H646   0.990       .  S
O637        H650   0.990       .  S
C638       C1236   1.487       .  S
Zr661       O662   2.439       .  S
Zr661       O663   2.420       .  S
Zr661       O664   2.424       .  S
Zr661       O667   2.421       .  S
Zr661       O669   2.377       .  S
Zr661       O670   2.379       .  S
Zr661       O671   2.401       .  S
Zr661       O672   2.395       .  S
O662        H718   0.990       .  S
O662        H726   0.990       .  S
O663        C683   1.283       .  A
O664        C685   1.284       .  A
O665       Zr675   2.429       .  S
O665        C684   1.285       .  A
O666       Zr674   2.446       .  S
O666        C685   1.288       .  A
O667        C684   1.284       .  A
O668       Zr676   2.429       .  S
O668        C683   1.284       .  A
O669       Zr674   2.389       .  S
O669       Zr676   2.369       .  S
O670       Zr675   2.383       .  S
O670       Zr676   2.374       .  S
O670        H705   0.965       .  S
O671       Zr674   2.397       .  S
O671       Zr691   2.397       .  S
O671        H708   0.966       .  S
O672       Zr675   2.389       .  S
O672       Zr691   2.389       .  S
Zr673       O698   2.451       .  S
Zr673       O692   2.432       .  S
Zr673       O700   2.429       .  S
Zr673       O688   2.425       .  S
Zr673       O679   2.397       .  S
Zr673       O680   2.407       .  S
Zr673       O681   2.378       .  S
Zr673       O682   2.381       .  S
Zr674       O693   2.435       .  S
Zr674       O686   2.434       .  S
Zr674       O687   2.438       .  S
Zr674       O680   2.401       .  S
Zr674       O681   2.390       .  S
Zr675       O677   2.434       .  S
Zr675       O699   2.439       .  S
Zr675       O701   2.427       .  S
Zr675       O679   2.393       .  S
Zr675       O682   2.384       .  S
Zr676       O702   2.434       .  S
Zr676       O703   2.435       .  S
Zr676       O678   2.437       .  S
Zr676       O679   2.394       .  S
Zr676       O680   2.400       .  S
O677        H714   0.990       .  S
O678        H709   0.990       .  S
O678        H723   0.990       .  S
O680        H706   0.967       .  S
O681       Zr691   2.373       .  S
O682       Zr691   2.384       .  S
O682        H707   0.965       .  S
C683       C1068   1.481       .  S
C684        C841   1.482       .  S
C685        C793   1.488       .  S
O686        H722   0.990       .  S
O687        C689   1.286       .  A
O688        C689   1.283       .  A
C689        C817   1.485       .  S
O690       Zr691   2.439       .  S
O690        H719   0.990       .  S
Zr691       O694   2.436       .  S
Zr691       O695   2.438       .  S
Zr691       O696   2.411       .  S
O692        C697   1.285       .  A
O693        H710   0.990       .  S
O693        H725   0.990       .  S
O694        H711   0.990       .  S
O695        H715   0.990       .  S
O695        H724   0.990       .  S
O696        C697   1.281       .  A
C697       C1044   1.480       .  S
O698        H717   0.990       .  S
O698        H721   0.990       .  S
O699        H713   0.990       .  S
O699        H720   0.990       .  S
O700        C704   1.284       .  A
O701        C704   1.285       .  A
O702        H712   0.990       .  S
O703        H716   0.990       .  S
C704       C1188   1.484       .  S
Zr727       O728   2.438       .  S
Zr727       O729   2.421       .  S
Zr727       O730   2.442       .  S
Zr727       O733   2.433       .  S
Zr727       O735   2.379       .  S
Zr727       O736   2.381       .  S
Zr727       O737   2.403       .  S
Zr727       O738   2.400       .  S
O728        H784   0.990       .  S
O728        H792   0.990       .  S
O729        C749   1.283       .  A
O730        C751   1.287       .  A
O731       Zr741   2.426       .  S
O731        C750   1.285       .  A
O732       Zr740   2.431       .  S
O732        C751   1.285       .  A
O733        C750   1.286       .  A
O734       Zr742   2.439       .  S
O734        C749   1.286       .  A
O735       Zr740   2.389       .  S
O735       Zr742   2.370       .  S
O736       Zr741   2.384       .  S
O736       Zr742   2.373       .  S
O736        H771   0.966       .  S
O737       Zr740   2.396       .  S
O737       Zr757   2.402       .  S
O737        H774   0.966       .  S
O738       Zr741   2.389       .  S
O738       Zr757   2.390       .  S
Zr739       O764   2.446       .  S
Zr739       O758   2.447       .  S
Zr739       O766   2.440       .  S
Zr739       O754   2.425       .  S
Zr739       O745   2.397       .  S
Zr739       O746   2.411       .  S
Zr739       O747   2.381       .  S
Zr739       O748   2.380       .  S
Zr740       O759   2.437       .  S
Zr740       O752   2.434       .  S
Zr740       O753   2.434       .  S
Zr740       O746   2.397       .  S
Zr740       O747   2.385       .  S
Zr741       O743   2.435       .  S
Zr741       O765   2.439       .  S
Zr741       O767   2.427       .  S
Zr741       O745   2.385       .  S
Zr741       O748   2.383       .  S
Zr742       O768   2.436       .  S
Zr742       O769   2.434       .  S
Zr742       O744   2.436       .  S
Zr742       O745   2.392       .  S
Zr742       O746   2.405       .  S
O743        H780   0.990       .  S
O744        H775   0.990       .  S
O744        H789   0.990       .  S
O746        H772   0.966       .  S
O747       Zr757   2.372       .  S
O748       Zr757   2.382       .  S
O748        H773   0.967       .  S
C749        C889   1.484       .  S
C750        C996   1.484   1_545  S
C751        C804   1.489       .  S
O752        H788   0.990       .  S
O753        C755   1.286       .  A
O754        C755   1.284       .  A
C755       C1020   1.485       .  S
O756       Zr757   2.440       .  S
O756        H785   0.990       .  S
Zr757       O760   2.436       .  S
Zr757       O761   2.441       .  S
Zr757       O762   2.421       .  S
O758        C763   1.287       .  A
O759        H776   0.990       .  S
O759        H791   0.990       .  S
O760        H777   0.990       .  S
O761        H781   0.990       .  S
O761        H790   0.990       .  S
O762        C763   1.283       .  A
C763        C913   1.489       .  S
O764        H783   0.990       .  S
O764        H787   0.990       .  S
O765        H779   0.990       .  S
O765        H786   0.990       .  S
O766        C770   1.287       .  A
O767        C770   1.285       .  A
O768        H778   0.990       .  S
O769        H782   0.990       .  S
C770       C1153   1.487       .  S
C793        C794   1.408       .  A
C793        C798   1.406       .  A
C794        C795   1.397       .  A
C794        H807   1.083       .  S
C795        C796   1.403       .  A
C795        H808   1.083       .  S
C796        C797   1.410       .  A
C796        C799   1.492   1_556  S
C797        C798   1.403       .  A
C797        H809   1.081       .  S
C798        H810   1.083       .  S
C799        C800   1.349   1_455  D
C799        H811   1.083       .  S
C800        C801   1.494       .  S
C800        H812   1.084   1_554  S
C801        C802   1.404       .  A
C801        C806   1.411       .  A
C802        C803   1.398       .  A
C802        H813   1.083       .  S
C803        C804   1.407       .  A
C803        H814   1.083       .  S
C804        C805   1.407       .  A
C805        C806   1.402       .  A
C805        H815   1.083       .  S
C806        H816   1.080       .  S
C817        C818   1.408       .  A
C817        C822   1.406       .  A
C818        C819   1.396       .  A
C818        H831   1.083       .  S
C819        C820   1.401       .  A
C819        H832   1.083       .  S
C820        C821   1.409       .  A
C820        C823   1.486       .  S
C821        C822   1.400       .  A
C821        H833   1.082       .  S
C822        H834   1.083       .  S
C823        C824   1.345       .  D
C823        H835   1.085       .  S
C824        C825   1.485       .  S
C824        H836   1.085       .  S
C825        C826   1.400       .  A
C825        C830   1.409       .  A
C826        C827   1.394       .  A
C826        H837   1.084       .  S
C827        C828   1.407       .  A
C827        H838   1.083       .  S
C828        C829   1.407       .  A
C829        C830   1.402       .  A
C829        H839   1.083       .  S
C830        H840   1.081       .  S
C841        C842   1.406       .  A
C841        C846   1.407       .  A
C842        C843   1.396       .  A
C842        H855   1.083       .  S
C843        C844   1.402       .  A
C843        H856   1.083       .  S
C844        C845   1.407       .  A
C844        C847   1.483       .  S
C845        C846   1.397       .  A
C845        H857   1.082       .  S
C846        H858   1.083       .  S
C847        C848   1.348       .  D
C847        H859   1.083       .  S
C848        C849   1.488       .  S
C848        H860   1.086       .  S
C849        C850   1.404       .  A
C849        C854   1.408   1_545  A
C850        C851   1.398   1_545  A
C850        H861   1.083       .  S
C851        C852   1.406       .  A
C851        H862   1.083       .  S
C852        C853   1.406       .  A
C853        C854   1.397       .  A
C853        H863   1.083       .  S
C854        H864   1.080   1_565  S
C865        C866   1.406       .  A
C865        C870   1.408       .  A
C866        C867   1.398       .  A
C866        H879   1.083       .  S
C867        C868   1.404       .  A
C867        H880   1.083       .  S
C868        C869   1.412       .  A
C868        C871   1.499   1_556  S
C869        C870   1.405       .  A
C869        H881   1.080       .  S
C870        H882   1.083       .  S
C871        C872   1.351       .  D
C871        H883   1.084       .  S
C872        C873   1.499       .  S
C872        H884   1.083       .  S
C873        C874   1.405   1_565  A
C873        C878   1.411   1_565  A
C874        C875   1.399       .  A
C874        H885   1.083   1_545  S
C875        C876   1.406       .  A
C875        H886   1.083       .  S
C876        C877   1.409       .  A
C877        C878   1.405       .  A
C877        H887   1.083       .  S
C878        H888   1.080       .  S
C889        C890   1.407       .  A
C889        C894   1.406       .  A
C890        C891   1.397   1_655  A
C890        H903   1.083       .  S
C891        C892   1.402       .  A
C891        H904   1.083       .  S
C892        C893   1.409       .  A
C892        C895   1.487       .  S
C893        C894   1.399   1_455  A
C893        H905   1.081       .  S
C894        H906   1.083       .  S
C895        C896   1.346       .  D
C895        H907   1.084       .  S
C896        C897   1.487       .  S
C896        H908   1.085       .  S
C897        C898   1.401       .  A
C897        C902   1.410       .  A
C898        C899   1.394       .  A
C898        H909   1.084       .  S
C899        C900   1.408       .  A
C899        H910   1.083       .  S
C900        C901   1.406       .  A
C901        C902   1.402       .  A
C901        H911   1.083       .  S
C902        H912   1.081       .  S
C913        C914   1.407       .  A
C913        C918   1.407       .  A
C914        C915   1.393       .  A
C914        H927   1.083       .  S
C915        C916   1.401       .  A
C915        H928   1.084       .  S
C916        C917   1.412       .  A
C916        C919   1.493       .  S
C917        C918   1.406       .  A
C917        H929   1.080       .  S
C918        H930   1.083       .  S
C919        C920   1.347       .  D
C919        H931   1.085       .  S
C920        C921   1.492       .  S
C920        H932   1.084       .  S
C921        C922   1.401       .  A
C921        C926   1.411       .  A
C922        C923   1.397       .  A
C922        H933   1.083       .  S
C923        C924   1.408       .  A
C923        H934   1.083       .  S
C924        C925   1.406       .  A
C925        C926   1.402       .  A
C925        H935   1.083       .  S
C926        H936   1.081       .  S
C937        C938   1.405       .  A
C937        C942   1.408       .  A
C938        C939   1.396       .  A
C938        H951   1.083       .  S
C939        C940   1.403       .  A
C939        H952   1.083       .  S
C940        C941   1.406       .  A
C940        C943   1.483       .  S
C941        C942   1.397       .  A
C941        H953   1.081       .  S
C942        H954   1.083       .  S
C943        C944   1.347       .  D
C943        H955   1.084       .  S
C944        C945   1.485       .  S
C944        H956   1.085       .  S
C945        C946   1.404   1_455  A
C945        C950   1.407       .  A
C946        C947   1.399       .  A
C946        H957   1.083       .  S
C947        C948   1.405       .  A
C947        H958   1.083       .  S
C948        C949   1.407       .  A
C949        C950   1.395   1_655  A
C949        H959   1.083       .  S
C950        H960   1.081       .  S
C961        C962   1.408       .  A
C961        C966   1.404       .  A
C962        C963   1.391       .  A
C962        H975   1.083       .  S
C963        C964   1.399       .  A
C963        H976   1.084       .  S
C964        C965   1.411       .  A
C964        C967   1.485       .  S
C965        C966   1.402       .  A
C965        H977   1.081       .  S
C966        H978   1.083       .  S
C967        C968   1.344       .  D
C967        H979   1.084       .  S
C968        C969   1.486       .  S
C968        H980   1.084       .  S
C969        C970   1.401       .  A
C969        C974   1.411       .  A
C970        C971   1.394       .  A
C970        H981   1.084       .  S
C971        C972   1.407       .  A
C971        H982   1.083       .  S
C972        C973   1.404       .  A
C973        C974   1.400       .  A
C973        H983   1.083       .  S
C974        H984   1.081       .  S
C985        C986   1.407       .  A
C985        C990   1.406       .  A
C986        C987   1.399       .  A
C986        H999   1.083       .  S
C987        C988   1.403       .  A
C987       H1000   1.083       .  S
C988        C989   1.408       .  A
C988        C991   1.488       .  S
C989        C990   1.396       .  A
C989       H1001   1.081       .  S
C990       H1002   1.083       .  S
C991        C992   1.347       .  D
C991       H1003   1.085       .  S
C992        C993   1.485       .  S
C992       H1004   1.085       .  S
C993        C994   1.401       .  A
C993        C998   1.409       .  A
C994        C995   1.394       .  A
C994       H1005   1.084       .  S
C995        C996   1.406       .  A
C995       H1006   1.083       .  S
C996        C997   1.407       .  A
C997        C998   1.402       .  A
C997       H1007   1.083   1_565  S
C998       H1008   1.081       .  S
C1009      C1010   1.406       .  A
C1009      C1014   1.407       .  A
C1010      C1011   1.403       .  A
C1010      H1023   1.083       .  S
C1011      C1012   1.406       .  A
C1011      H1024   1.083       .  S
C1012      C1013   1.405       .  A
C1012      C1015   1.489       .  S
C1013      C1014   1.394       .  A
C1013      H1025   1.081       .  S
C1014      H1026   1.083       .  S
C1015      C1016   1.351       .  D
C1015      H1027   1.083       .  S
C1016      C1017   1.490       .  S
C1016      H1028   1.084       .  S
C1017      C1018   1.406       .  A
C1017      C1022   1.407       .  A
C1018      C1019   1.399       .  A
C1018      H1029   1.083       .  S
C1019      C1020   1.405       .  A
C1019      H1030   1.083       .  S
C1020      C1021   1.407       .  A
C1021      C1022   1.397       .  A
C1021      H1031   1.083       .  S
C1022      H1032   1.080       .  S
C1033      C1034   1.408       .  A
C1033      C1038   1.405       .  A
C1034      C1035   1.397       .  A
C1034      H1047   1.083       .  S
C1035      C1036   1.402       .  A
C1035      H1048   1.084       .  S
C1036      C1037   1.409       .  A
C1036      C1039   1.486       .  S
C1037      C1038   1.398       .  A
C1037      H1049   1.081       .  S
C1038      H1050   1.083       .  S
C1039      C1040   1.346       .  D
C1039      H1051   1.085       .  S
C1040      C1041   1.484       .  S
C1040      H1052   1.084       .  S
C1041      C1042   1.401       .  A
C1041      C1046   1.409       .  A
C1042      C1043   1.393       .  A
C1042      H1053   1.084       .  S
C1043      C1044   1.407       .  A
C1043      H1054   1.083       .  S
C1044      C1045   1.405       .  A
C1045      C1046   1.399       .  A
C1045      H1055   1.083       .  S
C1046      H1056   1.081       .  S
C1057      C1058   1.407       .  A
C1057      C1062   1.406       .  A
C1058      C1059   1.395   1_565  A
C1058      H1071   1.083       .  S
C1059      C1060   1.402       .  A
C1059      H1072   1.084       .  S
C1060      C1061   1.408   1_545  A
C1060      C1063   1.484       .  S
C1061      C1062   1.399       .  A
C1061      H1073   1.081       .  S
C1062      H1074   1.083       .  S
C1063      C1064   1.346       .  D
C1063      H1075   1.085       .  S
C1064      C1065   1.484       .  S
C1064      H1076   1.084       .  S
C1065      C1066   1.402       .  A
C1065      C1070   1.407       .  A
C1066      C1067   1.397   1_655  A
C1066      H1077   1.083       .  S
C1067      C1068   1.407       .  A
C1067      H1078   1.083       .  S
C1068      C1069   1.406   1_455  A
C1069      C1070   1.396       .  A
C1069      H1079   1.083       .  S
C1070      H1080   1.081       .  S
C1081      C1082   1.406       .  A
C1081      C1086   1.409       .  A
C1082      C1083   1.405       .  A
C1082      H1095   1.083       .  S
C1083      C1084   1.408       .  A
C1083      H1096   1.083       .  S
C1084      C1085   1.405       .  A
C1084      C1087   1.492       .  S
C1085      C1086   1.394       .  A
C1085      H1097   1.081       .  S
C1086      H1098   1.083       .  S
C1087      C1088   1.353       .  D
C1087      H1099   1.084       .  S
C1088      C1089   1.493       .  S
C1088      H1100   1.085       .  S
C1089      C1090   1.407       .  A
C1089      C1094   1.406       .  A
C1090      C1091   1.402       .  A
C1090      H1101   1.083       .  S
C1091      C1092   1.405       .  A
C1091      H1102   1.083       .  S
C1092      C1093   1.411       .  A
C1093      C1094   1.399       .  A
C1093      H1103   1.083       .  S
C1094      H1104   1.081       .  S
C1105      C1106   1.408       .  A
C1105      C1110   1.408       .  A
C1106      C1107   1.394   1_455  A
C1106      H1119   1.083       .  S
C1107      C1108   1.401       .  A
C1107      H1120   1.084       .  S
C1108      C1109   1.411   1_655  A
C1108      C1111   1.491       .  S
C1109      C1110   1.406       .  A
C1109      H1121   1.081   1_455  S
C1110      H1122   1.083       .  S
C1111      C1112   1.347       .  D
C1111      H1123   1.085       .  S
C1112      C1113   1.493       .  S
C1112      H1124   1.084       .  S
C1113      C1114   1.402       .  A
C1113      C1118   1.411       .  A
C1114      C1115   1.398       .  A
C1114      H1125   1.084       .  S
C1115      C1116   1.410       .  A
C1115      H1126   1.083       .  S
C1116      C1117   1.405       .  A
C1117      C1118   1.402       .  A
C1117      H1127   1.083       .  S
C1118      H1128   1.081       .  S
C1129      C1130   1.407       .  A
C1129      C1134   1.408       .  A
C1130      C1131   1.400       .  A
C1130      H1143   1.083       .  S
C1131      C1132   1.405       .  A
C1131      H1144   1.083       .  S
C1132      C1133   1.409       .  A
C1132      C1135   1.493       .  S
C1133      C1134   1.401       .  A
C1133      H1145   1.081       .  S
C1134      H1146   1.083       .  S
C1135      C1136   1.351   1_556  D
C1135      H1147   1.084       .  S
C1136      C1137   1.494       .  S
C1136      H1148   1.084       .  S
C1137      C1138   1.406       .  A
C1137      C1142   1.408       .  A
C1138      C1139   1.401       .  A
C1138      H1149   1.083       .  S
C1139      C1140   1.406       .  A
C1139      H1150   1.083       .  S
C1140      C1141   1.408       .  A
C1141      C1142   1.400       .  A
C1141      H1151   1.083       .  S
C1142      H1152   1.080       .  S
C1153      C1154   1.406       .  A
C1153      C1158   1.407       .  A
C1154      C1155   1.400       .  A
C1154      H1167   1.083       .  S
C1155      C1156   1.405       .  A
C1155      H1168   1.083       .  S
C1156      C1157   1.408       .  A
C1156      C1159   1.492       .  S
C1157      C1158   1.398       .  A
C1157      H1169   1.080       .  S
C1158      H1170   1.083       .  S
C1159      C1160   1.351       .  D
C1159      H1171   1.083       .  S
C1160      C1161   1.492       .  S
C1160      H1172   1.084       .  S
C1161      C1162   1.405       .  A
C1161      C1166   1.408       .  A
C1162      C1163   1.400       .  A
C1162      H1173   1.083       .  S
C1163      C1164   1.406       .  A
C1163      H1174   1.083       .  S
C1164      C1165   1.407       .  A
C1165      C1166   1.399       .  A
C1165      H1175   1.083       .  S
C1166      H1176   1.080       .  S
C1177      C1178   1.406       .  A
C1177      C1182   1.406       .  A
C1178      C1179   1.396       .  A
C1178      H1191   1.083       .  S
C1179      C1180   1.403       .  A
C1179      H1192   1.084       .  S
C1180      C1181   1.409       .  A
C1180      C1183   1.488       .  S
C1181      C1182   1.399       .  A
C1181      H1193   1.080       .  S
C1182      H1194   1.083       .  S
C1183      C1184   1.347       .  D
C1183      H1195   1.085       .  S
C1184      C1185   1.486       .  S
C1184      H1196   1.083       .  S
C1185      C1186   1.402       .  A
C1185      C1190   1.408       .  A
C1186      C1187   1.397       .  A
C1186      H1197   1.083       .  S
C1187      C1188   1.407       .  A
C1187      H1198   1.083       .  S
C1188      C1189   1.406       .  A
C1189      C1190   1.398       .  A
C1189      H1199   1.083       .  S
C1190      H1200   1.081       .  S
C1201      C1202   1.406       .  A
C1201      C1206   1.406       .  A
C1202      C1203   1.400       .  A
C1202      H1215   1.083       .  S
C1203      C1204   1.402       .  A
C1203      H1216   1.083       .  S
C1204      C1205   1.405       .  A
C1204      C1207   1.481       .  S
C1205      C1206   1.402       .  A
C1205      H1217   1.083   1_655  S
C1206      H1218   1.083       .  S
C1207      C1208   1.345   1_655  D
C1207      H1219   1.086       .  S
C1208      C1209   1.485       .  S
C1208      H1220   1.087       .  S
C1209      C1210   1.404       .  A
C1209      C1214   1.405       .  A
C1210      C1211   1.402       .  A
C1210      H1221   1.083       .  S
C1211      C1212   1.406       .  A
C1211      H1222   1.083       .  S
C1212      C1213   1.407       .  A
C1213      C1214   1.399       .  A
C1213      H1223   1.083       .  S
C1214      H1224   1.083       .  S
C1225      C1226   1.407       .  A
C1225      C1230   1.407       .  A
C1226      C1227   1.397       .  A
C1226      H1239   1.083       .  S
C1227      C1228   1.404       .  A
C1227      H1240   1.084       .  S
C1228      C1229   1.410       .  A
C1228      C1231   1.492       .  S
C1229      C1230   1.401       .  A
C1229      H1241   1.080       .  S
C1230      H1242   1.083       .  S
C1231      C1232   1.351       .  D
C1231      H1243   1.084       .  S
C1232      C1233   1.492       .  S
C1232      H1244   1.083       .  S
C1233      C1234   1.406       .  A
C1233      C1238   1.408       .  A
C1234      C1235   1.402       .  A
C1234      H1245   1.083       .  S
C1235      C1236   1.407       .  A
C1235      H1246   1.083       .  S
C1236      C1237   1.406       .  A
C1237      C1238   1.396       .  A
C1237      H1247   1.083       .  S
C1238      H1248   1.080       .  S
C1249      C1250   1.408       .  A
C1249      C1254   1.407       .  A
C1250      C1251   1.392       .  A
C1250      H1263   1.083       .  S
C1251      C1252   1.399       .  A
C1251      H1264   1.084       .  S
C1252      C1253   1.410       .  A
C1252      C1255   1.485       .  S
C1253      C1254   1.403       .  A
C1253      H1265   1.081       .  S
C1254      H1266   1.083       .  S
C1255      C1256   1.344       .  D
C1255      H1267   1.085       .  S
C1256      C1257   1.485       .  S
C1256      H1268   1.085       .  S
C1257      C1258   1.399       .  A
C1257      C1262   1.410       .  A
C1258      C1259   1.394       .  A
C1258      H1269   1.083       .  S
C1259      C1260   1.408       .  A
C1259      H1270   1.083       .  S
C1260      C1261   1.406       .  A
C1261      C1262   1.401       .  A
C1261      H1271   1.083       .  S
C1262      H1272   1.082       .  S
C1273      C1274   1.406       .  A
C1273      C1278   1.407       .  A
C1274      C1275   1.398   1_565  A
C1274      H1287   1.083       .  S
C1275      C1276   1.404       .  A
C1275      H1288   1.084       .  S
C1276      C1277   1.408   1_545  A
C1276      C1279   1.488       .  S
C1277      C1278   1.399       .  A
C1277      H1289   1.081       .  S
C1278      H1290   1.083       .  S
C1279      C1280   1.350       .  D
C1279      H1291   1.084       .  S
C1280      C1281   1.488       .  S
C1280      H1292   1.084       .  S
C1281      C1282   1.405       .  A
C1281      C1286   1.407       .  A
C1282      C1283   1.400       .  A
C1282      H1293   1.083       .  S
C1283      C1284   1.406       .  A
C1283      H1294   1.083       .  S
C1284      C1285   1.408       .  A
C1285      C1286   1.396       .  A
C1285      H1295   1.083       .  S
C1286      H1296   1.081       .  S
C1297      C1298   1.406       .  A
C1297      C1302   1.408       .  A
C1298      C1299   1.400       .  A
C1298      H1311   1.083       .  S
C1299      C1300   1.405       .  A
C1299      H1312   1.083       .  S
C1300      C1301   1.408       .  A
C1300      C1303   1.493       .  S
C1301      C1302   1.400       .  A
C1301      H1313   1.081       .  S
C1302      H1314   1.083       .  S
C1303      C1304   1.350       .  D
C1303      H1315   1.084       .  S
C1304      C1305   1.492       .  S
C1304      H1316   1.084       .  S
C1305      C1306   1.404       .  A
C1305      C1310   1.409       .  A
C1306      C1307   1.399       .  A
C1306      H1317   1.084       .  S
C1307      C1308   1.407       .  A
C1307      H1318   1.083       .  S
C1308      C1309   1.408       .  A
C1309      C1310   1.402       .  A
C1309      H1319   1.083       .  S
C1310      H1320   1.081       .  S
C1321      C1322   1.406       .  A
C1321      C1326   1.409       .  A
C1322      C1323   1.403       .  A
C1322      H1335   1.083       .  S
C1323      C1324   1.408       .  A
C1323      H1336   1.083       .  S
C1324      C1325   1.410       .  A
C1324      C1327   1.501   1_545  S
C1325      C1326   1.401       .  A
C1325      H1337   1.079       .  S
C1326      H1338   1.083       .  S
C1327      C1328   1.354       .  D
C1327      H1339   1.083       .  S
C1328      C1329   1.499       .  S
C1328      H1340   1.082       .  S
C1329      C1330   1.407       .  A
C1329      C1334   1.410       .  A
C1330      C1331   1.401       .  A
C1330      H1341   1.083       .  S
C1331      C1332   1.406       .  A
C1331      H1342   1.083       .  S
C1332      C1333   1.408       .  A
C1333      C1334   1.402       .  A
C1333      H1343   1.083       .  S
C1334      H1344   1.080       .  S
C1345      C1346   1.406       .  A
C1345      C1350   1.407       .  A
C1346      C1347   1.399       .  A
C1346      H1359   1.083       .  S
C1347      C1348   1.404       .  A
C1347      H1360   1.083       .  S
C1348      C1349   1.408       .  A
C1348      C1351   1.490       .  S
C1349      C1350   1.398       .  A
C1349      H1361   1.081       .  S
C1350      H1362   1.083       .  S
C1351      C1352   1.350       .  D
C1351      H1363   1.084       .  S
C1352      C1353   1.490       .  S
C1352      H1364   1.084       .  S
C1353      C1354   1.405       .  A
C1353      C1358   1.408       .  A
C1354      C1355   1.398       .  A
C1354      H1365   1.083       .  S
C1355      C1356   1.405       .  A
C1355      H1366   1.083       .  S
C1356      C1357   1.407       .  A
C1357      C1358   1.398       .  A
C1357      H1367   1.083   1_455  S
C1358      H1368   1.080       .  S
C1369      C1370   1.407       .  A
C1369      C1374   1.407       .  A
C1370      C1371   1.396       .  A
C1370      H1383   1.083       .  S
C1371      C1372   1.402       .  A
C1371      H1384   1.083       .  S
C1372      C1373   1.410       .  A
C1372      C1375   1.492       .  S
C1373      C1374   1.404       .  A
C1373      H1385   1.081       .  S
C1374      H1386   1.083       .  S
C1375      C1376   1.349       .  D
C1375      H1387   1.084       .  S
C1376      C1377   1.494       .  S
C1376      H1388   1.085       .  S
C1377      C1378   1.403       .  A
C1377      C1382   1.411       .  A
C1378      C1379   1.398       .  A
C1378      H1389   1.083       .  S
C1379      C1380   1.408       .  A
C1379      H1390   1.083       .  S
C1380      C1381   1.406       .  A
C1381      C1382   1.404       .  A
C1381      H1391   1.083       .  S
C1382      H1392   1.081       .  S
C1393      C1394   1.406       .  A
C1393      C1398   1.406       .  A
C1394      C1395   1.397       .  A
C1394      H1407   1.083       .  S
C1395      C1396   1.403       .  A
C1395      H1408   1.083       .  S
C1396      C1397   1.409       .  A
C1396      C1399   1.488       .  S
C1397      C1398   1.399       .  A
C1397      H1409   1.081       .  S
C1398      H1410   1.083       .  S
C1399      C1400   1.349       .  D
C1399      H1411   1.084       .  S
C1400      C1401   1.490       .  S
C1400      H1412   1.084       .  S
C1401      C1402   1.404       .  A
C1401      C1406   1.408       .  A
C1402      C1403   1.398       .  A
C1402      H1413   1.083       .  S
C1403      C1404   1.407       .  A
C1403      H1414   1.083       .  S
C1404      C1405   1.407       .  A
C1405      C1406   1.399       .  A
C1405      H1415   1.083       .  S
C1406      H1416   1.081       .  S
C1417      C1418   1.407   1_545  A
C1417      C1422   1.407   1_545  A
C1418      C1419   1.393       .  A
C1418      H1431   1.083       .  S
C1419      C1420   1.401       .  A
C1419      H1432   1.084       .  S
C1420      C1421   1.410       .  A
C1420      C1423   1.487       .  S
C1421      C1422   1.404       .  A
C1421      H1433   1.081       .  S
C1422      H1434   1.083   1_565  S
C1423      C1424   1.346       .  D
C1423      H1435   1.086       .  S
C1424      C1425   1.487       .  S
C1424      H1436   1.085       .  S
C1425      C1426   1.401       .  A
C1425      C1430   1.409       .  A
C1426      C1427   1.397       .  A
C1426      H1437   1.083       .  S
C1427      C1428   1.409       .  A
C1427      H1438   1.083       .  S
C1428      C1429   1.406       .  A
C1429      C1430   1.400       .  A
C1429      H1439   1.083       .  S
C1430      H1440   1.082       .  S
C1441      C1442   1.407       .  A
C1441      C1446   1.404       .  A
C1442      C1443   1.396       .  A
C1442      H1455   1.083       .  S
C1443      C1444   1.401       .  A
C1443      H1456   1.083       .  S
C1444      C1445   1.410       .  A
C1444      C1447   1.487       .  S
C1445      C1446   1.400       .  A
C1445      H1457   1.081       .  S
C1446      H1458   1.083       .  S
C1447      C1448   1.346       .  D
C1447      H1459   1.085       .  S
C1448      C1449   1.486       .  S
C1448      H1460   1.085       .  S
C1449      C1450   1.401       .  A
C1449      C1454   1.410       .  A
C1450      C1451   1.394       .  A
C1450      H1461   1.084       .  S
C1451      C1452   1.406       .  A
C1451      H1462   1.083       .  S
C1452      C1453   1.406       .  A
C1453      C1454   1.403       .  A
C1453      H1463   1.083       .  S
C1454      H1464   1.081       .  S
C1465      C1466   1.407   1_655  A
C1465      C1470   1.406       .  A
C1466      C1467   1.392       .  A
C1466      H1479   1.083       .  S
C1467      C1468   1.400       .  A
C1467      H1480   1.084       .  S
C1468      C1469   1.409       .  A
C1468      C1471   1.483       .  S
C1469      C1470   1.400   1_455  A
C1469      H1481   1.081       .  S
C1470      H1482   1.083       .  S
C1471      C1472   1.345       .  D
C1471      H1483   1.086       .  S
C1472      C1473   1.483       .  S
C1472      H1484   1.084       .  S
C1473      C1474   1.401       .  A
C1473      C1478   1.407       .  A
C1474      C1475   1.398       .  A
C1474      H1485   1.083       .  S
C1475      C1476   1.408       .  A
C1475      H1486   1.083   1_565  S
C1476      C1477   1.406       .  A
C1477      C1478   1.396       .  A
C1477      H1487   1.083       .  S
C1478      H1488   1.082       .  S
C1489      C1490   1.408       .  A
C1489      C1494   1.404       .  A
C1490      C1491   1.397       .  A
C1490      H1503   1.083       .  S
C1491      C1492   1.402       .  A
C1491      H1504   1.083       .  S
C1492      C1493   1.409       .  A
C1492      C1495   1.486       .  S
C1493      C1494   1.396       .  A
C1493      H1505   1.081       .  S
C1494      H1506   1.083       .  S
C1495      C1496   1.347       .  D
C1495      H1507   1.083       .  S
C1496      C1497   1.488       .  S
C1496      H1508   1.085       .  S
C1497      C1498   1.402       .  A
C1497      C1502   1.411       .  A
C1498      C1499   1.393       .  A
C1498      H1509   1.084       .  S
C1499      C1500   1.405       .  A
C1499      H1510   1.083       .  S
C1500      C1501   1.406       .  A
C1501      C1502   1.402       .  A
C1501      H1511   1.083       .  S
C1502      H1512   1.079       .  S
C1513      C1514   1.405       .  A
C1513      C1518   1.407       .  A
C1514      C1515   1.400       .  A
C1514      H1527   1.083       .  S
C1515      C1516   1.407       .  A
C1515      H1528   1.083       .  S
C1516      C1517   1.410       .  A
C1516      C1519   1.497       .  S
C1517      C1518   1.400       .  A
C1517      H1529   1.079       .  S
C1518      H1530   1.083       .  S
C1519      C1520   1.352       .  D
C1519      H1531   1.084       .  S
C1520      C1521   1.495       .  S
C1520      H1532   1.082       .  S
C1521      C1522   1.405       .  A
C1521      C1526   1.409       .  A
C1522      C1523   1.401       .  A
C1522      H1533   1.083       .  S
C1523      C1524   1.407       .  A
C1523      H1534   1.083       .  S
C1524      C1525   1.408       .  A
C1525      C1526   1.401       .  A
C1525      H1535   1.083       .  S
C1526      H1536   1.080       .  S
C1537      C1538   1.406       .  A
C1537      C1542   1.407       .  A
C1538      C1539   1.400       .  A
C1538      H1551   1.083       .  S
C1539      C1540   1.405       .  A
C1539      H1552   1.083       .  S
C1540      C1541   1.407       .  A
C1540      C1543   1.490       .  S
C1541      C1542   1.398       .  A
C1541      H1553   1.081       .  S
C1542      H1554   1.083       .  S
C1543      C1544   1.352       .  D
C1543      H1555   1.083       .  S
C1544      C1545   1.494       .  S
C1544      H1556   1.084       .  S
C1545      C1546   1.407       .  A
C1545      C1550   1.408       .  A
C1546      C1547   1.402       .  A
C1546      H1557   1.083       .  S
C1547      C1548   1.406       .  A
C1547      H1558   1.083       .  S
C1548      C1549   1.408       .  A
C1549      C1550   1.398       .  A
C1549      H1559   1.083       .  S
C1550      H1560   1.080       .  S
C1561      C1562   1.406   1_455  A
C1561      C1566   1.408   1_455  A
C1562      C1563   1.398       .  A
C1562      H1575   1.083       .  S
C1563      C1564   1.403       .  A
C1563      H1576   1.083       .  S
C1564      C1565   1.406       .  A
C1564      C1567   1.485       .  S
C1565      C1566   1.398       .  A
C1565      H1577   1.082       .  S
C1566      H1578   1.083   1_655  S
C1567      C1568   1.349       .  D
C1567      H1579   1.082       .  S
C1568      C1569   1.491   1_545  S
C1568      H1580   1.085       .  S
C1569      C1570   1.406       .  A
C1569      C1574   1.409       .  A
C1570      C1571   1.400       .  A
C1570      H1581   1.083       .  S
C1571      C1572   1.405       .  A
C1571      H1582   1.083       .  S
C1572      C1573   1.405       .  A
C1573      C1574   1.396       .  A
C1573      H1583   1.083       .  S
C1574      H1584   1.079   1_565  S
C1585      C1586   1.407       .  A
C1585      C1590   1.407       .  A
C1586      C1587   1.396       .  A
C1586      H1599   1.083       .  S
C1587      C1588   1.403       .  A
C1587      H1600   1.084       .  S
C1588      C1589   1.410       .  A
C1588      C1591   1.491       .  S
C1589      C1590   1.402       .  A
C1589      H1601   1.081       .  S
C1590      H1602   1.083       .  S
C1591      C1592   1.348       .  D
C1591      H1603   1.085       .  S
C1592      C1593   1.491       .  S
C1592      H1604   1.084       .  S
C1593      C1594   1.402       .  A
C1593      C1598   1.410       .  A
C1594      C1595   1.398       .  A
C1594      H1605   1.083       .  S
C1595      C1596   1.408       .  A
C1595      H1606   1.083       .  S
C1596      C1597   1.407       .  A
C1597      C1598   1.401       .  A
C1597      H1607   1.083       .  S
C1598      H1608   1.081       .  S
C1609      C1610   1.407       .  A
C1609      C1614   1.407       .  A
C1610      C1611   1.397       .  A
C1610      H1623   1.083       .  S
C1611      C1612   1.403       .  A
C1611      H1624   1.083       .  S
C1612      C1613   1.409       .  A
C1612      C1615   1.489       .  S
C1613      C1614   1.400       .  A
C1613      H1625   1.081       .  S
C1614      H1626   1.083       .  S
C1615      C1616   1.348       .  D
C1615      H1627   1.084       .  S
C1616      C1617   1.490       .  S
C1616      H1628   1.084       .  S
C1617      C1618   1.402       .  A
C1617      C1622   1.410       .  A
C1618      C1619   1.396   1_655  A
C1618      H1629   1.084       .  S
C1619      C1620   1.408       .  A
C1619      H1630   1.083       .  S
C1620      C1621   1.406       .  A
C1621      C1622   1.402   1_455  A
C1621      H1631   1.083       .  S
C1622      H1632   1.080       .  S
C1633      C1634   1.409       .  A
C1633      C1638   1.408       .  A
C1634      C1635   1.398       .  A
C1634      H1647   1.083       .  S
C1635      C1636   1.403       .  A
C1635      H1648   1.084       .  S
C1636      C1637   1.412       .  A
C1636      C1639   1.499       .  S
C1637      C1638   1.408       .  A
C1637      H1649   1.081       .  S
C1638      H1650   1.083       .  S
C1639      C1640   1.352       .  D
C1639      H1651   1.083       .  S
C1640      C1641   1.503       .  S
C1640      H1652   1.085       .  S
C1641      C1642   1.405       .  A
C1641      C1646   1.413       .  A
C1642      C1643   1.400       .  A
C1642      H1653   1.083       .  S
C1643      C1644   1.409       .  A
C1643      H1654   1.083       .  S
C1644      C1645   1.407       .  A
C1645      C1646   1.406       .  A
C1645      H1655   1.083       .  S
C1646      H1656   1.079       .  S
