geometry optimzed in LAMMPS
_audit_creation_date              2020-12-01 
_audit_creation_method            'lammps2cif' 
_symmetry_space_group_name_H-M    'P1' 
_symmetry_Int_Tables_number       1 
_symmetry_cell_setting            triclinic 
loop_ 
_symmetry_equiv_pos_as_xyz 
  x,y,z 
_cell_length_a                    65.34935177 
_cell_length_b                    64.7932183055418 
_cell_length_c                    25.529833266245983 
_cell_angle_alpha                 89.63985444654324 
_cell_angle_beta                  90.60317212742669 
_cell_angle_gamma                 119.7742641937107 
loop_ 
_atom_site_label 
_atom_site_type_symbol 
_atom_site_fract_x 
_atom_site_fract_y 
_atom_site_fract_z 
_atom_site_charge 
O1          O  0.56488855  0.48006110  0.19753502    -0.85000
O2          O  0.56251677  0.51086171  0.12717634    -0.82000
C3          C  0.54347471  0.51037302  0.13960704     0.98500
O4          O  0.54196810  0.51892433  0.18249868    -0.82000
O5          O  0.55239329  0.53917662  0.28041760    -0.84700
C6          C  0.54435597  0.52154946  0.31085279     1.03000
O7          O  0.55284053  0.50790819  0.31121009    -0.77500
O8          O  0.57553454  0.48470509  0.28072687    -0.77600
C9          C  0.56353777  0.47146482  0.24263483     1.03000
O10         O  0.61502490  0.51060201  0.21074567    -0.85000
O11         O  0.61230784  0.54421594  0.14890325    -0.82000
C12         C  0.60620272  0.55883477  0.13293798     0.98500
O13         O  0.58628377  0.55597349  0.14474873    -0.82100
O14         O  0.59869613  0.57185372  0.24541332    -0.84700
C15         C  0.60321921  0.57226598  0.29353186     1.03000
O16         O  0.59630957  0.55301446  0.31918234    -0.77500
O17         O  0.61980535  0.53051211  0.28314635    -0.77600
C18         C  0.62770776  0.52223612  0.24945464     1.02900
Cr19       Cr  0.58829498  0.51238640  0.17490960     1.93700
Cr20       Cr  0.57060861  0.54491451  0.21428523     1.93200
Cr21       Cr  0.58596284  0.51947285  0.29358140     1.39100
O22         O  0.58165055  0.52545664  0.22794179    -1.22700
O23         O  0.36864132  0.48586596  0.73914766    -0.85000
O24         O  0.36895255  0.45033280  0.79788606    -0.82000
C25         C  0.37320374  0.43398938  0.81062359     0.98500
O26         O  0.39249807  0.43529768  0.79807674    -0.82000
O27         O  0.38246970  0.42267844  0.69546792    -0.84700
C28         C  0.37890996  0.42361334  0.64721981     1.03000
O29         O  0.38564691  0.44352660  0.62496383    -0.77500
O30         O  0.36211149  0.46483263  0.66778433    -0.77600
C31         C  0.35544273  0.47452265  0.70084272     1.03000
O32         O  0.41894210  0.51383680  0.75330907    -0.85000
O33         O  0.41845580  0.48074880  0.82247707    -0.82000
C34         C  0.43712950  0.48055572  0.81022438     0.98500
O35         O  0.43863911  0.47264829  0.76656206    -0.82100
O36         O  0.42961360  0.45650112  0.66556752    -0.84700
C37         C  0.43768909  0.47490678  0.63721622     1.03000
O38         O  0.42871441  0.48810354  0.63803095    -0.77500
O39         O  0.40572130  0.51027363  0.67239914    -0.77600
C40         C  0.41920376  0.52296567  0.70936412     1.02900
Cr41       Cr  0.39414324  0.48178994  0.77441416     1.93700
Cr42       Cr  0.41010959  0.44837713  0.73075279     1.93200
Cr43       Cr  0.39567160  0.47606509  0.65563331     1.39100
O44         O  0.39995006  0.46874727  0.72004948    -1.22700
O45         O  0.56894949  0.75928261  0.53502759    -0.85000
O46         O  0.59924373  0.75961655  0.45674794    -0.82000
C47         C  0.61944870  0.77707824  0.46736514     0.98500
O48         O  0.62991370  0.77713009  0.50894820    -0.82000
O49         O  0.63715644  0.76739392  0.60942928    -0.84700
C50         C  0.62732145  0.77501950  0.64036758     1.03000
O51         O  0.60518319  0.76542087  0.64206554    -0.77500
O52         O  0.55899503  0.74047372  0.61015298    -0.77600
C53         C  0.55937660  0.75605321  0.57947372     1.03000
O54         O  0.54650491  0.70736458  0.53995818    -0.85000
O55         O  0.57964491  0.70922152  0.47344545    -0.82000
C56         C  0.59929708  0.71115445  0.46260469     0.98500
O57         O  0.61837173  0.72949145  0.47610386    -0.82100
O58         O  0.62305105  0.71921800  0.57685107    -0.84700
C59         C  0.62015623  0.71612314  0.62531387     1.03000
O60         O  0.60802756  0.72327341  0.64931390    -0.77500
O61         O  0.56297972  0.69837387  0.60487178    -0.77600
C62         C  0.54584290  0.69254101  0.57373253     1.02900
Cr63       Cr  0.57505782  0.73436869  0.50484295     1.93700
Cr64       Cr  0.62485352  0.74767360  0.54363269     1.93200
Cr65       Cr  0.58449363  0.73217762  0.62156087     1.39100
O66         O  0.59493883  0.73819434  0.55652012    -1.22700
O67         O  0.76866683  0.95721747  0.06505361    -0.85000
O68         O  0.73458734  0.95365073  0.13177747    -0.82000
C69         C  0.71427778  0.94930868  0.14510583     0.98500
O70         O  0.69619818  0.92993163  0.13240789    -0.82000
O71         O  0.68980357  0.94153954  0.03316547    -0.84700
C72         C  0.69239591  0.94556919  0.98482913     1.03000
O73         O  0.70598207  0.94072854  0.95924683    -0.77500
O74         O  0.75148947  0.96632462  0.00204195    -0.77600
C75         C  0.76886224  0.97224377  0.03252110     1.03000
O76         O  0.74728363  0.90544520  0.06807856    -0.85000
O77         O  0.71700814  0.90357186  0.14801544    -0.82000
C78         C  0.69753574  0.88523388  0.13659930     0.98500
O79         O  0.68750077  0.88435573  0.09379904    -0.82100
O80         O  0.67816942  0.89507723  0.99581323    -0.84700
C81         C  0.68841980  0.88876828  0.96304930     1.03000
O82         O  0.71058649  0.89938076  0.96045128    -0.77500
O83         O  0.75643866  0.92463893  0.99322695    -0.77600
C84         C  0.75580359  0.90848469  0.02249535     1.02900
Cr85       Cr  0.74055111  0.92952086  0.09978772     1.93700
Cr86       Cr  0.69017133  0.91354203  0.06285132     1.93200
Cr87       Cr  0.73049512  0.93245878  0.98364377     1.39100
O88         O  0.72030265  0.92515773  0.04866797    -1.22700
O89         O  0.90121620  0.42740917  0.22382607    -0.85000
O90         O  0.92636479  0.42466508  0.13851040    -0.82000
C91         C  0.94650754  0.44283299  0.14192480     0.98500
O92         O  0.95960859  0.44540190  0.18080773    -0.82000
O93         O  0.97199857  0.43897777  0.28196635    -0.84700
C94         C  0.96302023  0.44471518  0.31910542     1.03000
O95         O  0.94110181  0.43376514  0.32670753    -0.77500
O96         O  0.89456689  0.41003154  0.30077670    -0.77600
C97         C  0.89429377  0.42550937  0.27070130     1.03000
O98         O  0.87846130  0.37631430  0.23323378    -0.85000
O99         O  0.90898131  0.37575660  0.16127451    -0.82000
C100        C  0.92834697  0.37787173  0.14662631     0.98500
O101        O  0.94771212  0.39692441  0.15493939    -0.82100
O102        O  0.95951499  0.39115860  0.25330937    -0.84700
C103        C  0.95627327  0.38604007  0.30116745     1.03000
O104        O  0.94328490  0.39121293  0.32768457    -0.77500
O105        O  0.89731225  0.36685731  0.29084725    -0.77600
C106        C  0.87906492  0.36123332  0.26378098     1.02900
Cr107      Cr  0.90549160  0.40162792  0.19260510     1.93700
Cr108      Cr  0.95733757  0.41747033  0.21934101     1.93200
Cr109      Cr  0.91962451  0.40078450  0.30610620     1.39100
O110        O  0.92781356  0.40688632  0.23944664    -1.22700
O111        O  0.11040314  0.62335770  0.73862992    -0.85000
O112        O  0.07741189  0.62742588  0.79737863    -0.82000
C113        C  0.05736896  0.62452134  0.80860897     0.98500
O114        O  0.03902646  0.60423837  0.80447794    -0.82000
O115        O  0.02934233  0.60441146  0.70101226    -0.84700
C116        C  0.03330712  0.60642293  0.65259392     1.03000
O117        O  0.04695285  0.60004274  0.63284824    -0.77500
O118        O  0.09257622  0.62712361  0.66972917    -0.77600
C119        C  0.11023185  0.63546906  0.69990463     1.03000
O120        O  0.08870999  0.57408819  0.76731334    -0.85000
O121        O  0.06089691  0.58072195  0.83901872    -0.82000
C122        C  0.04162049  0.56136618  0.83680901     0.98500
O123        O  0.02937716  0.55568460  0.79531944    -0.82100
O124        O  0.01782628  0.55598053  0.68950356    -0.84700
C125        C  0.02738376  0.54819994  0.65832927     1.03000
O126        O  0.04944877  0.55820910  0.65446913    -0.77500
O127        O  0.09534657  0.58367294  0.68394963    -0.77600
C128        C  0.09569126  0.57159833  0.72303030     1.02900
Cr129      Cr  0.08274197  0.60062240  0.78191842     1.93700
Cr130      Cr  0.03128031  0.58068961  0.74649701     1.93200
Cr131      Cr  0.07050257  0.59234925  0.66547635     1.39100
O132        O  0.06127402  0.59097303  0.73105128    -1.22700
O133        O  0.83947950  0.76935249  0.89709805    -0.85000
O134        O  0.82399217  0.73478080  0.82107575    -0.82000
C135        C  0.81374373  0.71353883  0.80506646     0.98500
O136        O  0.79415820  0.69834523  0.82393925    -0.82000
O137        O  0.79918300  0.68862467  0.92847450    -0.84700
C138        C  0.80124199  0.69108344  0.97763977     1.03000
O139        O  0.79637938  0.70539143  0.99963571    -0.77500
O140        O  0.83495972  0.74651480  0.96540289    -0.77600
C141        C  0.84816228  0.76273903  0.93398613     1.03000
O142        O  0.79427258  0.76908122  0.88769241    -0.85000
O143        O  0.78058726  0.73606773  0.80971193    -0.82000
C144        C  0.75960088  0.71986417  0.81795204     0.98500
O145        O  0.75490275  0.70402344  0.85215518    -0.82100
O146        O  0.75671974  0.69064155  0.95171745    -0.84700
C147        C  0.75243741  0.70403586  0.98011219     1.03000
O148        O  0.76757813  0.72576863  0.98601863    -0.77500
O149        O  0.80795727  0.76955312  0.96588164    -0.77600
C150        C  0.79896683  0.77743610  0.93345809     1.02900
Cr151      Cr  0.80863113  0.75061544  0.85775399     1.93700
Cr152      Cr  0.77780022  0.69776584  0.89016023     1.93200
Cr153      Cr  0.80130443  0.73627493  0.97364898     1.39100
O154        O  0.79588539  0.72820828  0.90653482    -1.22700
O155        O  0.85348457  0.56218239  0.40990630    -0.85000
O156        O  0.86978362  0.59542039  0.48849587    -0.82000
C157        C  0.89114620  0.61080706  0.48081237     0.98500
O158        O  0.89687576  0.62613750  0.44495164    -0.82000
O159        O  0.89560579  0.64008432  0.34502717    -0.84700
C160        C  0.89814653  0.62562838  0.31616824     1.03000
O161        O  0.88163434  0.60432664  0.31125144    -0.77500
O162        O  0.83922736  0.56235517  0.33276596    -0.77600
C163        C  0.84771061  0.55366518  0.36441690     1.03000
O164        O  0.81000298  0.56565808  0.40293885    -0.85000
O165        O  0.82849541  0.60026591  0.47849623    -0.82000
C166        C  0.84041093  0.62132534  0.49509385     0.98500
O167        O  0.86016351  0.63552660  0.47514882    -0.82100
O168        O  0.85563194  0.64616918  0.37054391    -0.84700
C169        C  0.85316527  0.64375684  0.32141887     1.03000
O170        O  0.85592409  0.62810313  0.29906312    -0.77500
O171        O  0.81547126  0.58866580  0.33437385    -0.77600
C172        C  0.80180811  0.57306523  0.36650806     1.02900
Cr173      Cr  0.84147427  0.58250008  0.44096183     1.93700
Cr174      Cr  0.87532678  0.63463253  0.40777937     1.93200
Cr175      Cr  0.84857478  0.59642787  0.32492570     1.39100
O176        O  0.85510865  0.60456364  0.39186237    -1.22700
O177        O  0.70000635  0.14916382  0.39368647    -0.85000
O178        O  0.70182418  0.11775971  0.46445868    -0.82000
C179        C  0.70777525  0.10381439  0.48517677     0.98500
O180        O  0.72868028  0.10775714  0.48093269    -0.82000
O181        O  0.72514906  0.09303294  0.37961287    -0.84700
C182        C  0.72435347  0.09311617  0.33041981     1.03000
O183        O  0.73210162  0.11251717  0.30521298    -0.77500
O184        O  0.70249139  0.12936974  0.32700383    -0.77600
C185        C  0.69120458  0.13689234  0.35237569     1.03000
O186        O  0.74841054  0.18290242  0.42303463    -0.85000
O187        O  0.74878212  0.15374271  0.50047608    -0.82000
C188        C  0.76926315  0.15622683  0.49525587     0.98500
O189        O  0.77401564  0.14786058  0.45597232    -0.82100
O190        O  0.77248505  0.12942368  0.35853013    -0.84700
C191        C  0.78113807  0.14750507  0.32904802     1.03000
O192        O  0.77123453  0.15979422  0.32484931    -0.77500
O193        O  0.74168430  0.17729083  0.33843184    -0.77600
C194        C  0.75124864  0.19102922  0.37720656     1.02900
Cr195      Cr  0.72545610  0.15005496  0.44227832     1.93700
Cr196      Cr  0.74926773  0.12088245  0.41749950     1.93200
Cr197      Cr  0.73681387  0.14434131  0.32874669     1.39100
O198        O  0.73707224  0.13843495  0.39604509    -1.22700
O199        O  0.89679727  0.15507271  0.86675472    -0.85000
O200        O  0.89673752  0.18945330  0.80276094    -0.82000
C201        C  0.87890999  0.19062125  0.81837859     0.98500
O202        O  0.87905619  0.19889216  0.86285257    -0.82000
O203        O  0.89141492  0.21481483  0.96395145    -0.84700
C204        C  0.88251481  0.19616634  0.99158692     1.03000
O205        O  0.88924345  0.18120419  0.98643937    -0.77500
O206        O  0.90962664  0.15691658  0.94755478    -0.77600
C207        C  0.89620934  0.14506275  0.90971068     1.03000
O208        O  0.94742958  0.18192358  0.87714494    -0.85000
O209        O  0.94738566  0.21858237  0.82167123    -0.82000
C210        C  0.94333718  0.23520355  0.81033620     0.98500
O211        O  0.92485278  0.23456277  0.82676475    -0.82100
O212        O  0.93853191  0.24602274  0.92908190    -0.84700
C213        C  0.94205716  0.24435888  0.97700376     1.03000
O214        O  0.93401608  0.22408696  0.99865302    -0.77500
O215        O  0.95490778  0.20059413  0.95238427    -0.77600
C216        C  0.96086768  0.19149861  0.91636898     1.02900
Cr217      Cr  0.92183393  0.18718796  0.84615726     1.93700
Cr218      Cr  0.90905734  0.22186138  0.89607254     1.93200
Cr219      Cr  0.92181223  0.19139034  0.96632312     1.39100
O220        O  0.91760691  0.20004346  0.90299932    -1.22700
O221        O  0.17886406  0.42373238  0.51586706    -0.85000
O222        O  0.14477909  0.39191552  0.44936945    -0.82000
C223        C  0.14456520  0.37251686  0.45707628     0.98500
O224        O  0.13745916  0.36158340  0.50004406    -0.82000
O225        O  0.12677229  0.35517370  0.60770949    -0.84700
C226        C  0.14578478  0.36612128  0.63420914     1.03000
O227        O  0.15864151  0.38824520  0.63012129    -0.77500
O228        O  0.17702985  0.43391170  0.59653463    -0.77600
C229        C  0.18892997  0.43314365  0.55847184     1.03000
O230        O  0.15013506  0.44535086  0.53707848    -0.85000
O231        O  0.11460724  0.40979853  0.47904376    -0.82000
C232        C  0.09833023  0.38932796  0.46669570     0.98500
O233        O  0.09891942  0.37086561  0.48157954    -0.82100
O234        O  0.09089907  0.36756337  0.58688848    -0.84700
C235        C  0.09392101  0.37151483  0.63529827     1.03000
O236        O  0.11438316  0.38503443  0.65367474    -0.77500
O237        O  0.13126748  0.42986683  0.61008044    -0.77600
C238        C  0.13919987  0.44641661  0.57674160     1.02900
Cr239      Cr  0.14633497  0.41630122  0.49950851     1.93700
Cr240      Cr  0.11519501  0.36614117  0.54462776     1.93200
Cr241      Cr  0.14455080  0.40848425  0.61772474     1.39100
O242        O  0.13526840  0.39687834  0.55389791    -1.22700
O243        O  0.17174324  0.21600573  0.04356883    -0.85000
O244        O  0.20552784  0.25110139  0.10714700    -0.82000
C245        C  0.21960640  0.27172521  0.12410160     0.98500
O246        O  0.21451448  0.28817955  0.12014498    -0.82000
O247        O  0.22069775  0.29863875  0.01577774    -0.84700
C248        C  0.21738592  0.29678332  0.96699807     1.03000
O249        O  0.19705148  0.28314075  0.94819911    -0.77500
O250        O  0.18719843  0.23807719  0.97391810    -0.77600
C251        C  0.18243173  0.21981123  0.00026113     1.03000
O252        O  0.13752266  0.22818450  0.08393652    -0.85000
O253        O  0.17025374  0.25909168  0.15469215    -0.82000
C254        C  0.16733902  0.27702889  0.15585195     0.98500
O255        O  0.17151907  0.29005339  0.11583960    -0.82100
O256        O  0.18010591  0.30464300  0.01018737    -0.84700
C257        C  0.16094234  0.29320805  0.98447672     1.03000
O258        O  0.15049335  0.27093707  0.98304914    -0.77500
O259        O  0.13924892  0.22506271  0.99900591    -0.77600
C260        C  0.12727761  0.22153954  0.04012197     1.02900
Cr261      Cr  0.17171326  0.24012593  0.09387983     1.93700
Cr262      Cr  0.19527753  0.29307069  0.06430849     1.93200
Cr263      Cr  0.16922747  0.25482317  0.98097058     1.39100
O264        O  0.17875893  0.26271206  0.04649874    -1.22700
O265        O  0.23231047  0.81606785  0.51746237    -0.85000
O266        O  0.23366716  0.84916202  0.44636090    -0.82000
C267        C  0.21442397  0.84898617  0.45483420     0.98500
O268        O  0.21115390  0.85593492  0.49817706    -0.82000
O269        O  0.21652409  0.87138655  0.60035731    -0.84700
C270        C  0.20807094  0.85280133  0.62831470     1.03000
O271        O  0.21736622  0.83989041  0.62851769    -0.77500
O272        O  0.24278309  0.81933744  0.60043907    -0.77600
C273        C  0.23089287  0.80671219  0.56169042     1.03000
O274        O  0.28218484  0.84537524  0.54042603    -0.85000
O275        O  0.28216403  0.88057022  0.47856440    -0.82000
C276        C  0.27737655  0.89618009  0.46274742     0.98500
O277        O  0.25766898  0.89443832  0.47315221    -0.82100
O278        O  0.26437940  0.90636773  0.57672893    -0.84700
C279        C  0.26681718  0.90510758  0.62532277     1.03000
O280        O  0.25915526  0.88506289  0.64771256    -0.77500
O281        O  0.28529333  0.86530742  0.61182694    -0.77600
C282        C  0.29363494  0.85620893  0.58136017     1.02900
Cr283      Cr  0.25703444  0.84862899  0.49943616     1.93700
Cr284      Cr  0.23815063  0.88047394  0.53803335     1.93200
Cr285      Cr  0.25112142  0.85304528  0.61716672     1.39100
O286        O  0.24883481  0.86073780  0.55170994    -1.22700
O287        O  0.02924601  0.80169900  0.08617996    -0.85000
O288        O  0.05170734  0.78343264  0.14437655    -0.82000
C289        C  0.04235572  0.76151122  0.13280771     0.98500
O290        O  0.04676564  0.75497337  0.08991538    -0.82000
O291        O  0.05619416  0.75640630  0.98470498    -0.84700
C292        C  0.03714554  0.75315455  0.96445440     1.03000
O293        O  0.03087601  0.76848195  0.96979313    -0.77500
O294        O  0.03091851  0.80895108  0.00207045    -0.77600
C295        C  0.01987609  0.80379287  0.04466696     1.03000
O296        O  0.07437116  0.84386021  0.06062735    -0.85000
O297        O  0.09685947  0.82431550  0.11752347    -0.82000
C298        C  0.10472707  0.81046345  0.12778150     0.98500
O299        O  0.09458421  0.78969074  0.10951604    -0.82100
O300        O  0.10196698  0.79581601  0.00246672    -0.84700
C301        C  0.09913872  0.79966413  0.95513168     1.03000
O302        O  0.07969203  0.79743570  0.93932411    -0.77500
O303        O  0.07981133  0.83609511  0.97962340    -0.77600
C304        C  0.08295442  0.85075527  0.01517853     1.02900
Cr305      Cr  0.06317723  0.81225476  0.09750500     1.93700
Cr306      Cr  0.07413537  0.77596697  0.04638426     1.93200
Cr307      Cr  0.05593510  0.80228863  0.97806905     1.39100
O308        O  0.06450134  0.79710766  0.04089044    -1.22700
O309        O  0.51801329  0.10031550  0.20370632    -0.85000
O310        O  0.48959227  0.06840732  0.12603640    -0.82000
C311        C  0.49066193  0.04949715  0.13056520     0.98500
O312        O  0.48421604  0.03761467  0.17244157    -0.82000
O313        O  0.47094595  0.02718963  0.27735501    -0.84700
C314        C  0.48825149  0.03980634  0.30762412     1.03000
O315        O  0.49730112  0.06201422  0.30904887    -0.77500
O316        O  0.50912973  0.10720122  0.28153358    -0.77600
C317        C  0.52442529  0.10930870  0.24886321     1.03000
O318        O  0.48214642  0.11429375  0.21830260    -0.85000
O319        O  0.45291192  0.07823080  0.15202333    -0.82000
C320        C  0.43872188  0.05711907  0.13805679     0.98500
O321        O  0.44237771  0.04020248  0.15002738    -0.82100
O322        O  0.43007496  0.03138503  0.25278763    -0.84700
C323        C  0.43049637  0.03448825  0.30141089     1.03000
O324        O  0.44927805  0.04961072  0.32392145    -0.77500
O325        O  0.46010137  0.09380079  0.28423847    -0.77600
C326        C  0.46805561  0.11181518  0.25484327     1.02900
Cr327      Cr  0.48506674  0.08886619  0.17856239     1.93700
Cr328      Cr  0.45828144  0.03654291  0.21435306     1.93200
Cr329      Cr  0.47847575  0.07737641  0.29466940     1.39100
O330        O  0.47383121  0.06739906  0.22902249    -1.22700
O331        O  0.50474909  0.88434719  0.71123393    -0.85000
O332        O  0.53564316  0.91873242  0.77984020    -0.82000
C333        C  0.54983532  0.93953599  0.79586326     0.98500
O334        O  0.54522014  0.95619844  0.78961819    -0.82000
O335        O  0.55384798  0.96692333  0.68569468    -0.84700
C336        C  0.55151951  0.96543211  0.63666424     1.03000
O337        O  0.53161485  0.95193026  0.61610109    -0.77500
O338        O  0.52280777  0.90740652  0.64420676    -0.77600
C339        C  0.51754042  0.88902291  0.67066771     1.03000
O340        O  0.46824798  0.89634754  0.74283893    -0.85000
O341        O  0.49905826  0.92675879  0.81950659    -0.82000
C342        C  0.49762458  0.94560244  0.82011294     0.98500
O343        O  0.50276032  0.95855620  0.77983111    -0.82100
O344        O  0.51291177  0.97233092  0.67525805    -0.84700
C345        C  0.49430801  0.96076270  0.64784922     1.03000
O346        O  0.48434920  0.93850337  0.64473691    -0.77500
O347        O  0.47406593  0.89249445  0.66043834    -0.77600
C348        C  0.46005898  0.88920939  0.69729511     1.02900
Cr349      Cr  0.50231314  0.90797382  0.76007636     1.93700
Cr350      Cr  0.52731537  0.96116425  0.73124231     1.93200
Cr351      Cr  0.50374409  0.92310401  0.64637039     1.39100
O352        O  0.51120114  0.93084903  0.71286356    -1.22700
O353        O  0.43436979  0.28696187  0.40634355    -0.85000
O354        O  0.40163214  0.28438831  0.47699944    -0.82000
C355        C  0.38161909  0.28067462  0.49118829     0.98500
O356        O  0.36284484  0.26201675  0.47750526    -0.82000
O357        O  0.35369859  0.26784237  0.37652892    -0.84700
C358        C  0.35607743  0.27083135  0.32789313     1.03000
O359        O  0.36987820  0.26593222  0.30366254    -0.77500
O360        O  0.41597652  0.29378619  0.34227442    -0.77600
C361        C  0.43385051  0.30082141  0.37172135     1.03000
O362        O  0.41440455  0.23571299  0.41652077    -0.85000
O363        O  0.38626789  0.23569824  0.49752181    -0.82000
C364        C  0.36625559  0.21725969  0.49340630     0.98500
O365        O  0.35353115  0.21438580  0.45354235    -0.82100
O366        O  0.34312422  0.22034333  0.34982157    -0.84700
C367        C  0.35321085  0.21457078  0.31526625     1.03000
O368        O  0.37533898  0.22547129  0.31137720    -0.77500
O369        O  0.42174365  0.25235071  0.33901295    -0.77600
C370        C  0.42231937  0.23756691  0.37072742     1.02900
Cr371      Cr  0.40755054  0.26009380  0.44546494     1.93700
Cr372      Cr  0.35579277  0.24193789  0.41297354     1.93200
Cr373      Cr  0.39507524  0.25915735  0.32966221     1.39100
O374        O  0.38592100  0.25364711  0.39614788    -1.22700
O375        O  0.22611923  0.08257615  0.88351477    -0.85000
O376        O  0.25212247  0.07748829  0.80316468    -0.82000
C377        C  0.27185214  0.09647119  0.79968574     0.98500
O378        O  0.28623722  0.10306617  0.83755748    -0.82000
O379        O  0.30202743  0.10725877  0.94069981    -0.84700
C380        C  0.29277077  0.11585587  0.97083689     1.03000
O381        O  0.27079496  0.10522548  0.97758102    -0.77500
O382        O  0.22363073  0.07318452  0.96650302    -0.77600
C383        C  0.21959200  0.08363882  0.92934895     1.03000
O384        O  0.21053661  0.03360368  0.91737694    -0.85000
O385        O  0.24039818  0.03185771  0.84568703    -0.82000
C386        C  0.25981917  0.03485065  0.82934789     0.98500
O387        O  0.27851369  0.05493130  0.83299832    -0.82100
O388        O  0.29245444  0.05881292  0.93483755    -0.84700
C389        C  0.29254001  0.06074610  0.98378333     1.03000
O390        O  0.28024531  0.06833778  0.00502828    -0.77500
O391        O  0.23418275  0.03552227  0.98107223    -0.77600
C392        C  0.21476306  0.02435567  0.95723759     1.02900
Cr393      Cr  0.23405968  0.05743761  0.86554084     1.93700
Cr394      Cr  0.28747949  0.08030863  0.88799447     1.93200
Cr395      Cr  0.25258162  0.07040924  0.97723371     1.39100
O396        O  0.25821490  0.06950942  0.90991745    -1.22700
C397        C  0.32688598  0.16869328  0.59538681     0.19100
C398        C  0.30571075  0.14674890  0.59512378    -0.19000
C399        C  0.29665437  0.13358480  0.64156916    -0.11300
C400        C  0.30845146  0.14220654  0.68989550     0.21300
C401        C  0.32959717  0.16412844  0.69003157    -0.20600
C402        C  0.33861868  0.17723872  0.64377017    -0.11500
C403        C  0.30013905  0.12881551  0.74068432    -0.15600
C404        C  0.27831936  0.11019240  0.74952338    -0.29500
C405        C  0.33544580  0.18289638  0.54555888    -0.03800
C406        C  0.35803636  0.20015278  0.53809357    -0.40300
H407        H  0.29615402  0.13969101  0.55871054     0.12500
H408        H  0.28060230  0.11659702  0.63909718     0.12100
H409        H  0.33914728  0.17133576  0.72639412     0.11500
H410        H  0.35451472  0.19434738  0.64659907     0.11800
H411        H  0.31287258  0.13470960  0.77270859     0.14500
H412        H  0.26500632  0.10409989  0.71884634     0.13300
H413        H  0.32257183  0.17943081  0.51466853     0.11000
H414        H  0.37115376  0.20323940  0.56802572     0.13000
C415        C  0.33552763  0.18034749  0.18469389     0.19100
C416        C  0.34756374  0.17497066  0.14671341    -0.19000
C417        C  0.33625525  0.16324345  0.10042076    -0.11300
C418        C  0.31259420  0.15685174  0.09080591     0.21300
C419        C  0.30067980  0.16254654  0.12850670    -0.20600
C420        C  0.31197451  0.17422605  0.17481363    -0.11500
C421        C  0.29884004  0.14209410  0.04527987    -0.15600
C422        C  0.30799689  0.13662581  0.00399657    -0.29500
C423        C  0.34878914  0.19398756  0.23178697    -0.03800
C424        C  0.33883583  0.19643620  0.27565589    -0.40300
H425        H  0.36579763  0.17971448  0.15307356     0.12500
H426        H  0.34603432  0.15879701  0.07325255     0.12100
H427        H  0.28241859  0.15774517  0.12231445     0.11500
H428        H  0.30224494  0.17870353  0.20209430     0.11800
H429        H  0.27977227  0.13353751  0.04849280     0.14500
H430        H  0.32689091  0.14505409  0.99864669     0.13300
H431        H  0.36789772  0.20343738  0.22897001     0.11000
H432        H  0.31986161  0.18689518  0.28034310     0.13000
C433        C  0.43440663  0.18500527  0.35773166     0.19100
C434        C  0.45037824  0.18984068  0.31651171    -0.19000
C435        C  0.45516871  0.17224476  0.29850179    -0.11300
C436        C  0.44411977  0.14939643  0.32133574     0.21300
C437        C  0.42830277  0.14476095  0.36248063    -0.20600
C438        C  0.42357274  0.16228541  0.38045259    -0.11500
C439        C  0.44913996  0.13012332  0.30592594    -0.15600
C440        C  0.46226450  0.13089389  0.26468256    -0.29500
C441        C  0.42840250  0.20283122  0.37857208    -0.03800
C442        C  0.43196000  0.22246107  0.35252388    -0.40300
H443        H  0.45959158  0.20724237  0.29860751     0.12500
H444        H  0.46783884  0.17690413  0.26747396     0.12100
H445        H  0.41959687  0.12745983  0.38116096     0.11500
H446        H  0.41124070  0.15798365  0.41226354     0.11800
H447        H  0.44182910  0.11443508  0.33081284     0.14500
H448        H  0.46962857  0.14597804  0.23827846     0.13300
H449        H  0.41899455  0.19865021  0.41549599     0.11000
H450        H  0.44008490  0.22646031  0.31421412     0.13000
C451        C  0.34576061  0.05512646  0.02762512     0.19100
C452        C  0.35849019  0.04462385  0.00854831    -0.19000
C453        C  0.37872077  0.04775336  0.03477370    -0.11300
C454        C  0.38671048  0.06173598  0.08035019     0.21300
C455        C  0.37405113  0.07230890  0.09928286    -0.20600
C456        C  0.35375665  0.06902698  0.07337665    -0.11500
C457        C  0.40879082  0.06677061  0.10762017    -0.15600
C458        C  0.41749753  0.05186015  0.10743387    -0.29500
C459        C  0.32579389  0.05342026  0.99615608    -0.03800
C460        C  0.30860015  0.05639491  0.01678915    -0.40300
H461        H  0.35296643  0.03428322  0.97277212     0.12500
H462        H  0.38845270  0.03990430  0.01827694     0.12100
H463        H  0.38006193  0.08340955  0.13394811     0.11500
H464        H  0.34501102  0.07821242  0.08820503     0.11800
H465        H  0.41755505  0.08284991  0.13120360     0.14500
H466        H  0.40803352  0.03477504  0.08781634     0.13300
H467        H  0.32602928  0.05094661  0.95413192     0.11000
H468        H  0.30764627  0.05805449  0.05884884     0.13000
C469        C  0.49363135  0.00736134  0.02621328     0.19100
C470        C  0.48145147  0.98248721  0.01977521    -0.19000
C471        C  0.48252414  0.97197670  0.97262191    -0.11300
C472        C  0.49597346  0.98614436  0.93038237     0.21300
C473        C  0.50828212  0.01097318  0.93697023    -0.20600
C474        C  0.50728911  0.02146227  0.98407595    -0.11500
C475        C  0.49782273  0.97616706  0.87885505    -0.15600
C476        C  0.49168913  0.95322358  0.86995053    -0.29500
C477        C  0.49100517  0.01764140  0.07670620    -0.03800
C478        C  0.49783965  0.04084572  0.08424526    -0.40300
H479        H  0.47071546  0.97105134  0.05126484     0.12500
H480        H  0.47249456  0.95284114  0.96941082     0.12100
H481        H  0.51891875  0.02243123  0.90541717     0.11500
H482        H  0.51737123  0.04058888  0.98688357     0.11800
H483        H  0.50619678  0.98886456  0.84723009     0.14500
H484        H  0.48457923  0.94025708  0.90131546     0.13300
H485        H  0.48131627  0.00515640  0.10792064     0.11000
H486        H  0.50633607  0.05362326  0.05299394     0.13000
C487        C  0.49628753  0.99849269  0.53368796     0.19100
C488        C  0.51432702  0.00819579  0.49644187    -0.19000
C489        C  0.50950188  0.01173811  0.44479175    -0.11300
C490        C  0.48651430  0.00598422  0.42963626     0.21300
C491        C  0.46855363  0.99658421  0.46709026    -0.20600
C492        C  0.47337705  0.99301726  0.51871818    -0.11500
C493        C  0.48075655  0.01082661  0.37626244    -0.15600
C494        C  0.49646587  0.02895836  0.34696283    -0.29500
C495        C  0.50170191  0.99239325  0.58610561    -0.03800
C496        C  0.48600212  0.97298060  0.61234434    -0.40300
H497        H  0.53206731  0.01232107  0.50692017     0.12500
H498        H  0.52372854  0.01863656  0.41683976     0.12100
H499        H  0.45078359  0.99233548  0.45655689     0.11500
H500        H  0.45914961  0.98596454  0.54669436     0.11800
H501        H  0.46224354  0.00211246  0.36484643     0.14500
H502        H  0.51457905  0.03957937  0.36034743     0.13300
H503        H  0.52014425  0.00100954  0.59802133     0.11000
H504        H  0.46798902  0.96271036  0.59808032     0.13000
C505        C  0.12312373  0.91906464  0.01817954     0.19100
C506        C  0.14239221  0.93416336  0.04995924    -0.19000
C507        C  0.15909246  0.95691186  0.03254796    -0.11300
C508        C  0.15677453  0.96512127  0.98269030     0.21300
C509        C  0.13676356  0.95048360  0.95229297    -0.20600
C510        C  0.12013710  0.92774499  0.96962958    -0.11500
C511        C  0.17458613  0.98875085  0.96117550    -0.15600
C512        C  0.19703961  0.00095766  0.97840125    -0.29500
C513        C  0.10690132  0.89415939  0.03554081    -0.03800
C514        C  0.09670443  0.87620138  0.00101159    -0.40300
H515        H  0.14490318  0.92807946  0.08801299     0.12500
H516        H  0.17361724  0.96787137  0.05832318     0.12100
H517        H  0.13417286  0.95650044  0.91424893     0.11500
H518        H  0.10506561  0.91701134  0.94492229     0.11800
H519        H  0.16920085  0.99599834  0.92860404     0.14500
H520        H  0.20302324  0.99372715  0.00971095     0.13300
H521        H  0.10514967  0.89017615  0.07740354     0.11000
H522        H  0.10017026  0.88004339  0.95936356     0.13000
C523        C  0.35101029  0.86933375  0.65754682     0.19100
C524        C  0.36236525  0.88349861  0.70158654    -0.19000
C525        C  0.38408638  0.88673488  0.71946055    -0.11300
C526        C  0.39525026  0.87591687  0.69397653     0.21300
C527        C  0.38353777  0.86099112  0.65080176    -0.20600
C528        C  0.36171831  0.85778208  0.63276482    -0.11500
C529        C  0.41934121  0.88160952  0.71280420    -0.15600
C530        C  0.43451777  0.87789499  0.68451450    -0.29500
C531        C  0.32799801  0.86707381  0.64022052    -0.03800
C532        C  0.31652523  0.85749727  0.59456375    -0.40300
H533        H  0.35453961  0.89244448  0.72201798     0.12500
H534        H  0.39244448  0.89820233  0.75289288     0.12100
H535        H  0.39099511  0.85166779  0.63072162     0.11500
H536        H  0.35335630  0.84615834  0.59968936     0.11800
H537        H  0.42577862  0.89158123  0.74908483     0.14500
H538        H  0.42914814  0.86934531  0.64659894     0.13300
H539        H  0.32021323  0.87426010  0.66676242     0.11000
H540        H  0.32371944  0.85036342  0.56651962     0.13000
C541        C  0.37118191  0.98201976  0.34535291     0.19100
C542        C  0.34848478  0.96841726  0.32372723    -0.19000
C543        C  0.33066791  0.94960785  0.35200914    -0.11300
C544        C  0.33542513  0.94382010  0.40213369     0.21300
C545        C  0.35814103  0.95719922  0.42347447    -0.20600
C546        C  0.37582345  0.97619496  0.39562596    -0.11500
C547        C  0.31753297  0.92314382  0.43191841    -0.15600
C548        C  0.29447938  0.91634043  0.43092409    -0.29500
C549        C  0.39019353  0.00061357  0.31286003    -0.03800
C550        C  0.40967776  0.01914080  0.33342504    -0.40300
H551        H  0.34461349  0.97221253  0.28464463     0.12500
H552        H  0.31345177  0.93916348  0.33399166     0.12100
H553        H  0.36225920  0.95281935  0.46173693     0.11500
H554        H  0.39329310  0.98563923  0.41285139     0.11800
H555        H  0.32376323  0.91403510  0.45790822     0.14500
H556        H  0.28823512  0.92649105  0.40863838     0.13300
H557        H  0.38845257  0.99841071  0.27058825     0.11000
H558        H  0.41122211  0.02213950  0.37540792     0.13000
C559        C  0.27922576  0.99198741  0.77436289     0.19100
C560        C  0.29561365  0.99366434  0.73713772    -0.19000
C561        C  0.29419022  0.97309312  0.71595382    -0.11300
C562        C  0.27640851  0.95041332  0.73213250     0.21300
C563        C  0.26113291  0.94883991  0.77208400    -0.20600
C564        C  0.26244632  0.96936123  0.79291359    -0.11500
C565        C  0.27221197  0.92811636  0.70621185    -0.15600
C566        C  0.27699897  0.92745245  0.65537960    -0.29500
C567        C  0.27986886  0.01394695  0.79338575    -0.03800
C568        C  0.26006816  0.01413741  0.80637988    -0.40300
H569        H  0.30907065  0.01091047  0.72319939     0.12500
H570        H  0.30683804  0.97503397  0.68659340     0.12100
H571        H  0.24754065  0.93163077  0.78590992     0.11500
H572        H  0.25019172  0.96745226  0.82327190     0.11800
H573        H  0.26185545  0.91143852  0.72706602     0.14500
H574        H  0.28555439  0.94381559  0.63281669     0.13300
H575        H  0.29676653  0.03028768  0.79542076     0.11000
H576        H  0.24311260  0.99802054  0.80198649     0.13000
C577        C  0.15010440  0.83684201  0.24114410     0.19100
C578        C  0.14804431  0.84356206  0.29207954    -0.19000
C579        C  0.16396555  0.84561633  0.33166539    -0.11300
C580        C  0.18253810  0.84109922  0.32119696     0.21300
C581        C  0.18509830  0.83524234  0.26971266    -0.20600
C582        C  0.16905720  0.83302872  0.23017899    -0.11500
C583        C  0.20022940  0.84365816  0.36213380    -0.15600
C584        C  0.19598021  0.84244991  0.41392702    -0.29500
C585        C  0.13200571  0.83358736  0.20082572    -0.03800
C586        C  0.12545797  0.81738302  0.16232613    -0.40300
H587        H  0.13383430  0.84691853  0.30150649     0.12500
H588        H  0.16181488  0.85118037  0.37006416     0.12100
H589        H  0.19950314  0.83222520  0.26008460     0.11500
H590        H  0.17168959  0.82855028  0.19100212     0.11800
H591        H  0.21746918  0.84721255  0.34919294     0.14500
H592        H  0.17874387  0.83852297  0.42745869     0.13300
H593        H  0.12209662  0.84279702  0.20622855     0.11000
H594        H  0.13381538  0.80654027  0.15978967     0.13000
C595        C  0.16596151  0.82600470  0.74440714     0.19100
C596        C  0.16864364  0.81672452  0.79215675    -0.19000
C597        C  0.15240508  0.81117988  0.83230115    -0.11300
C598        C  0.13304242  0.81477687  0.82529052     0.21300
C599        C  0.13014220  0.82366598  0.77715009    -0.20600
C600        C  0.14646545  0.82932015  0.73705857    -0.11500
C601        C  0.11496389  0.80866561  0.86606545    -0.15600
C602        C  0.11815955  0.80579879  0.91725326    -0.29500
C603        C  0.18351498  0.83117517  0.70300643    -0.03800
C604        C  0.18830037  0.84695190  0.66389225    -0.40300
H605        H  0.18339647  0.81374008  0.79844205     0.12500
H606        H  0.15491169  0.80366198  0.86806161     0.12100
H607        H  0.11515223  0.82622931  0.77050111     0.11500
H608        H  0.14347861  0.83578611  0.70023298     0.11800
H609        H  0.09827507  0.80693584  0.85320067     0.14500
H610        H  0.13480200  0.80814712  0.93193734     0.13300
H611        H  0.19413510  0.82259832  0.70710259     0.11000
H612        H  0.17913569  0.85701191  0.66063043     0.13000
C613        C  0.18932304  0.16460842  0.97507587     0.19100
C614        C  0.17602682  0.14028909  0.98711400    -0.19000
C615        C  0.18198989  0.12402336  0.96631886    -0.11300
C616        C  0.20161617  0.13181082  0.93330955     0.21300
C617        C  0.21464073  0.15601470  0.92052491    -0.20600
C618        C  0.20878422  0.17228023  0.94151110    -0.11500
C619        C  0.20971262  0.11549395  0.91360614    -0.15600
C620        C  0.20719076  0.09678820  0.94170994    -0.29500
C621        C  0.18277795  0.18148352  0.99902389    -0.03800
C622        C  0.18902362  0.20291372  0.97815431    -0.40300
H623        H  0.16093525  0.13383650  0.01268132     0.12500
H624        H  0.17120138  0.10540465  0.97613012     0.12100
H625        H  0.22993121  0.16251074  0.89554447     0.11500
H626        H  0.22001635  0.19087978  0.93232984     0.11800
H627        H  0.22054193  0.12064878  0.87865470     0.14500
H628        H  0.19828493  0.09283378  0.97918585     0.13300
H629        H  0.17180712  0.17575951  0.03373179     0.11000
H630        H  0.19874224  0.20828025  0.94176457     0.13000
C631        C  0.31473633  0.27184586  0.22147548     0.19100
C632        C  0.30473684  0.28553494  0.23820253    -0.19000
C633        C  0.28407869  0.28279698  0.21450058    -0.11300
C634        C  0.27306203  0.26639005  0.17341786     0.21300
C635        C  0.28343070  0.25321444  0.15611609    -0.20600
C636        C  0.30410697  0.25606881  0.17949185    -0.11500
C637        C  0.25030870  0.26162892  0.14905313    -0.15600
C638        C  0.24207447  0.27698890  0.14989223    -0.29500
C639        C  0.33535852  0.27236400  0.24812744    -0.03800
C640        C  0.34066077  0.27776008  0.29914673    -0.40300
H641        H  0.31265815  0.29821228  0.26976550     0.12500
H642        H  0.27650525  0.29305743  0.22959294     0.12100
H643        H  0.27536560  0.24046013  0.12463945     0.11500
H644        H  0.31140845  0.24529656  0.16575997     0.11800
H645        H  0.24025917  0.24498890  0.12790597     0.14500
H646        H  0.25238252  0.29431001  0.16800812     0.13300
H647        H  0.34444317  0.26480012  0.22695937     0.11000
H648        H  0.33067083  0.28364706  0.32226659     0.13000
C649        C  0.16135073  0.31356179  0.26792220     0.19100
C650        C  0.17537299  0.33758860  0.28155188    -0.19000
C651        C  0.17179384  0.34628473  0.32848309    -0.11300
C652        C  0.15363493  0.33122269  0.36265975     0.21300
C653        C  0.14006526  0.30698116  0.34994107    -0.20600
C654        C  0.14378813  0.29820404  0.30297233    -0.11500
C655        C  0.14803597  0.34051004  0.41062316    -0.15600
C656        C  0.15213660  0.36301180  0.41347022    -0.29500
C657        C  0.16526856  0.30560802  0.21619688    -0.03800
C658        C  0.16035743  0.28324946  0.20578027    -0.40300
H659        H  0.18922815  0.34975209  0.25566871     0.12500
H660        H  0.18329326  0.36485461  0.33766994     0.12100
H661        H  0.12605046  0.29494249  0.37562181     0.11500
H662        H  0.13243872  0.27963185  0.29357203     0.11800
H663        H  0.13866049  0.32818066  0.44220903     0.14500
H664        H  0.15979863  0.37482647  0.38024577     0.13300
H665        H  0.17417991  0.31921940  0.18648132     0.11000
H666        H  0.15321241  0.26974631  0.23616852     0.13000
C667        C  0.15904558  0.32701641  0.86407738     0.19100
C668        C  0.17429941  0.33371893  0.82115298    -0.19000
C669        C  0.16740146  0.33781650  0.77190187    -0.11300
C670        C  0.14509982  0.33582064  0.76441279     0.21300
C671        C  0.12981095  0.32912462  0.80749817    -0.20600
C672        C  0.13665361  0.32476760  0.85677390    -0.11500
C673        C  0.13747546  0.34150245  0.71336654    -0.15600
C674        C  0.15243957  0.35408614  0.67454611    -0.29500
C675        C  0.16698295  0.32155720  0.91468043    -0.03800
C676        C  0.15219154  0.30527114  0.94908930    -0.40300
H677        H  0.19153479  0.33530578  0.82544555     0.12500
H678        H  0.17964789  0.34232742  0.74002865     0.12100
H679        H  0.11258391  0.32754817  0.80320072     0.11500
H680        H  0.12449921  0.31992456  0.88904272     0.11800
H681        H  0.11931553  0.33767892  0.71009868     0.14500
H682        H  0.17110176  0.36024536  0.67859086     0.13300
H683        H  0.18577694  0.32809955  0.91945495     0.11000
H684        H  0.13331218  0.29653071  0.94213151     0.13000
C685        C  0.01976084  0.19853567  0.97027683     0.19100
C686        C  0.02838251  0.19851733  0.02090410    -0.19000
C687        C  0.05078870  0.20110295  0.02861554    -0.11300
C688        C  0.06528316  0.20394295  0.98555811     0.21300
C689        C  0.05642809  0.20349345  0.93488583    -0.20600
C690        C  0.03400719  0.20085889  0.92720553    -0.11500
C691        C  0.09027261  0.20940891  0.99112693    -0.15600
C692        C  0.10132095  0.21063945  0.03695565    -0.29500
C693        C  0.99660053  0.19765555  0.96448078    -0.03800
C694        C  0.98357226  0.19159822  0.91999986    -0.40300
H695        H  0.01785168  0.19687515  0.05485265     0.12500
H696        H  0.05669216  0.20150721  0.06842001     0.12100
H697        H  0.06719495  0.20586485  0.90091441     0.11500
H698        H  0.02837602  0.20154533  0.88760059     0.11800
H699        H  0.10064333  0.21438375  0.95550721     0.14500
H700        H  0.09185992  0.20607943  0.07360148     0.13300
H701        H  0.98978006  0.20187343  0.99900192     0.11000
H702        H  0.98917979  0.18593879  0.88577677     0.13000
C703        C  0.03447289  0.32274397  0.68714872     0.19100
C704        C  0.01055225  0.31248802  0.67323631    -0.19000
C705        C  0.99334500  0.29279377  0.70066691    -0.11300
C706        C  0.99983480  0.28270666  0.74209419     0.21300
C707        C  0.02378089  0.29285104  0.75557893    -0.20600
C708        C  0.04091355  0.31272824  0.72872522    -0.11500
C709        C  0.98235035  0.26115214  0.77085709    -0.15600
C710        C  0.95976456  0.25551180  0.77754178    -0.29500
C711        C  0.05254407  0.34177151  0.65369274    -0.03800
C712        C  0.07411313  0.35796879  0.67143730    -0.40300
H713        H  0.00521789  0.31952322  0.64054092     0.12500
H714        H  0.97512902  0.28507316  0.68821047     0.12100
H715        H  0.02927854  0.28525185  0.78683778     0.11500
H716        H  0.05925847  0.31957703  0.73922301     0.11800
H717        H  0.98871187  0.25039525  0.79020465     0.14500
H718        H  0.95354430  0.26706627  0.76201233     0.13300
H719        H  0.04842358  0.34132474  0.61223411     0.11000
H720        H  0.07806643  0.35931707  0.71308440     0.13000
C721        C  0.58826232  0.12327594  0.27139470     0.19100
C722        C  0.59787987  0.10837706  0.26482363    -0.19000
C723        C  0.61884689  0.11320932  0.29012551    -0.11300
C724        C  0.63126606  0.13360398  0.32174764     0.21300
C725        C  0.62165135  0.14858559  0.32831198    -0.20600
C726        C  0.60041108  0.14355233  0.30337372    -0.11500
C727        C  0.65412103  0.13956791  0.34816687    -0.15600
C728        C  0.66798313  0.13126876  0.33045306    -0.29500
C729        C  0.56515659  0.11637612  0.24572174    -0.03800
C730        C  0.54938857  0.12163678  0.26589724    -0.40300
H731        H  0.58877049  0.09248922  0.24102405     0.12500
H732        H  0.62485575  0.10052840  0.28539459     0.12100
H733        H  0.63071688  0.16436200  0.35243632     0.11500
H734        H  0.59373040  0.15567093  0.30881399     0.11800
H735        H  0.66012782  0.15179094  0.38110496     0.14500
H736        H  0.66278276  0.12036614  0.29546928     0.13300
H737        H  0.55969243  0.10396350  0.21314868     0.11000
H738        H  0.55375498  0.13230004  0.30120880     0.13000
C739        C  0.64885066  0.05386630  0.53809093     0.19100
C740        C  0.62557835  0.04360306  0.51940512    -0.19000
C741        C  0.60731429  0.02434627  0.54533691    -0.11300
C742        C  0.61199291  0.01495729  0.59079898     0.21300
C743        C  0.63527297  0.02512383  0.60937436    -0.20600
C744        C  0.65358236  0.04434341  0.58327779    -0.11500
C745        C  0.59279425  0.99630160  0.62255016    -0.15600
C746        C  0.57149515  0.98077269  0.60272227    -0.29500
C747        C  0.66728745  0.07523595  0.51097448    -0.03800
C748        C  0.69050802  0.08289544  0.51476086    -0.40300
H749        H  0.62143342  0.05078576  0.48504263     0.12500
H750        H  0.58951713  0.01757974  0.53080717     0.12100
H751        H  0.63923802  0.01845199  0.64483079     0.11500
H752        H  0.67115525  0.05212039  0.59978231     0.11800
H753        H  0.59614274  0.99587917  0.66425991     0.14500
H754        H  0.56813886  0.98009190  0.56084901     0.13300
H755        H  0.66134479  0.08465698  0.48517602     0.11000
H756        H  0.69697871  0.07305753  0.53733901     0.13000
C757        C  0.83993227  0.18148112  0.69678824     0.19100
C758        C  0.84542918  0.19253303  0.64757101    -0.19000
C759        C  0.82759265  0.18964108  0.61267703    -0.11300
C760        C  0.80367834  0.17497070  0.62560422     0.21300
C761        C  0.79814301  0.16463385  0.67566255    -0.20600
C762        C  0.81605295  0.16775230  0.71091560    -0.11500
C763        C  0.78437493  0.16866649  0.58639050    -0.15600
C764        C  0.78807048  0.16767334  0.53501426    -0.29500
C765        C  0.85960467  0.18452752  0.73173906    -0.03800
C766        C  0.85819264  0.18387900  0.78421032    -0.40300
H767        H  0.86365331  0.20349219  0.63602462     0.12500
H768        H  0.83267977  0.19874244  0.57538974     0.12100
H769        H  0.77991135  0.15332330  0.68674642     0.11500
H770        H  0.81109899  0.15872707  0.74831186     0.11800
H771        H  0.76646001  0.16178513  0.60017360     0.14500
H772        H  0.80558482  0.17240309  0.52172541     0.13300
H773        H  0.87646601  0.18952770  0.71383283     0.11000
H774        H  0.84213122  0.18098209  0.80288231     0.13000
C775        C  0.84715633  0.17532199  0.11893199     0.19100
C776        C  0.83734395  0.15429198  0.14851955    -0.19000
C777        C  0.82519588  0.15231850  0.19462984    -0.11300
C778        C  0.82289168  0.17156392  0.21241326     0.21300
C779        C  0.83299247  0.19270148  0.18321050    -0.20600
C780        C  0.84515191  0.19468146  0.13715644    -0.11500
C781        C  0.80799933  0.16951894  0.25764092    -0.15600
C782        C  0.80106412  0.15254001  0.29472084    -0.29500
C783        C  0.86048663  0.17676493  0.07116991    -0.03800
C784        C  0.86581289  0.19310171  0.03316010    -0.40300
H785        H  0.83880313  0.13919622  0.13550196     0.12500
H786        H  0.81706943  0.13546413  0.21505623     0.12100
H787        H  0.83133599  0.20772115  0.19593531     0.11500
H788        H  0.85314992  0.21150106  0.11661147     0.11800
H789        H  0.80114448  0.18175494  0.25828911     0.14500
H790        H  0.80820936  0.14060128  0.29643201     0.13300
H791        H  0.86676826  0.16411596  0.06800996     0.11000
H792        H  0.85938365  0.20562844  0.03442907     0.13000
C793        C  0.95925056  0.66987176  0.26098075     0.19100
C794        C  0.97921385  0.68966481  0.28219434    -0.19000
C795        C  0.99741274  0.70563797  0.24994240    -0.11300
C796        C  0.99594063  0.70230728  0.19539808     0.21300
C797        C  0.97668067  0.68175155  0.17440129    -0.20600
C798        C  0.95839910  0.66572445  0.20675213    -0.11500
C799        C  0.01376559  0.72018980  0.15935502    -0.15600
C800        C  0.02626839  0.74359343  0.17071387    -0.29500
C801        C  0.93868340  0.65619596  0.29571324    -0.03800
C802        C  0.91988119  0.63474684  0.28475443    -0.40300
H803        H  0.98040132  0.69322066  0.32384760     0.12500
H804        H  0.01240142  0.72074115  0.26786394     0.12100
H805        H  0.97525088  0.67864592  0.13254526     0.11500
H806        H  0.94319773  0.65089249  0.18874125     0.11800
H807        H  0.01535692  0.71416706  0.12078168     0.14500
H808        H  0.02380189  0.75013108  0.20775872     0.13300
H809        H  0.93849464  0.66509824  0.33151560     0.11000
H810        H  0.91983487  0.62454651  0.25119526     0.13000
C811        C  0.95872109  0.79297239  0.99809827     0.19100
C812        C  0.95031105  0.79787010  0.95149289    -0.19000
C813        C  0.92634936  0.79030042  0.94453047    -0.11300
C814        C  0.91012136  0.77756861  0.98433796     0.21300
C815        C  0.91853641  0.77274964  0.03103005    -0.20600
C816        C  0.94250740  0.78032803  0.03800100    -0.11500
C817        C  0.88423675  0.76773330  0.97787997    -0.15600
C818        C  0.87406963  0.77436164  0.94013356    -0.29500
C819        C  0.98409338  0.79981925  0.00147558    -0.03800
C820        C  0.99546299  0.79961984  0.04574060    -0.40300
H821        H  0.96232556  0.80728268  0.91973894     0.12500
H822        H  0.92070982  0.79389382  0.90739232     0.12100
H823        H  0.90640758  0.76270778  0.06214604     0.11500
H824        H  0.94795648  0.77555939  0.07396067     0.11800
H825        H  0.87294148  0.75418124  0.00581502     0.14500
H826        H  0.88471616  0.78833359  0.91256281     0.13300
H827        H  0.99381297  0.80479382  0.96491155     0.11000
H828        H  0.98662005  0.79537850  0.08323086     0.13000
C829        C  0.82271215  0.67606673  0.69762773     0.19100
C830        C  0.81147204  0.65159333  0.68631795    -0.19000
C831        C  0.81798967  0.64302076  0.64292602    -0.11300
C832        C  0.83595158  0.65878690  0.60917710     0.21300
C833        C  0.84746719  0.68321268  0.62094994    -0.20600
C834        C  0.84092226  0.69180066  0.66430919    -0.11500
C835        C  0.84381268  0.65062002  0.56256986    -0.15600
C836        C  0.83127916  0.62902092  0.53971144    -0.29500
C837        C  0.81404389  0.68416789  0.74296787    -0.03800
C838        C  0.82449985  0.70656311  0.76240463    -0.40300
H839        H  0.79746213  0.63895303  0.71121092     0.12500
H840        H  0.80904906  0.62403577  0.63658047     0.12100
H841        H  0.86148702  0.69582284  0.59602737     0.11500
H842        H  0.84997633  0.71077348  0.67071687     0.11800
H843        H  0.86077505  0.66322133  0.54596234     0.14500
H844        H  0.81399570  0.61628276  0.55434776     0.13300
H845        H  0.79780660  0.67080312  0.76102540     0.11000
H846        H  0.84100691  0.72032224  0.74649565     0.13000
C847        C  0.84045902  0.66580055  0.19333888     0.19100
C848        C  0.85031834  0.66998887  0.14300530    -0.19000
C849        C  0.83843892  0.67250706  0.09972387    -0.11300
C850        C  0.81628296  0.67067303  0.10600028     0.21300
C851        C  0.80640166  0.66638613  0.15629357    -0.20600
C852        C  0.81827691  0.66389607  0.19952461    -0.11500
C853        C  0.80422006  0.67617160  0.06326234    -0.15600
C854        C  0.80932942  0.67794030  0.01164739    -0.29500
C855        C  0.85231251  0.66017880  0.23631232    -0.03800
C856        C  0.84688353  0.65841400  0.28774059    -0.40300
H857        H  0.86726393  0.67117327  0.13708689     0.12500
H858        H  0.84689512  0.67640309  0.06192937     0.12100
H859        H  0.78941632  0.66510137  0.16225363     0.11500
H860        H  0.80975087  0.65991474  0.23724072     0.11800
H861        H  0.79127337  0.68092660  0.07605410     0.14500
H862        H  0.82082024  0.67194527  0.99585380     0.13300
H863        H  0.86484560  0.65478985  0.22388150     0.11000
H864        H  0.83588283  0.66507457  0.30324811     0.13000
C865        C  0.18925956  0.74478354  0.62174054     0.19100
C866        C  0.18674536  0.73438485  0.67140693    -0.19000
C867        C  0.16869558  0.71112183  0.68118321    -0.11300
C868        C  0.15260070  0.69760545  0.64127778     0.21300
C869        C  0.15504149  0.70802857  0.59169633    -0.20600
C870        C  0.17308620  0.73127853  0.58191096    -0.11500
C871        C  0.13233249  0.67320847  0.65025514    -0.15600
C872        C  0.13102533  0.65918422  0.69075193    -0.29500
C873        C  0.20788651  0.77014498  0.61439865    -0.03800
C874        C  0.21489897  0.78081066  0.56736212    -0.40300
H875        H  0.19863606  0.74443616  0.70310139     0.12500
H876        H  0.16712780  0.70419654  0.72045868     0.12100
H877        H  0.14273669  0.69821508  0.56042978     0.11500
H878        H  0.17371330  0.73864498  0.54349692     0.11800
H879        H  0.11793737  0.66643376  0.62191835     0.14500
H880        H  0.14552048  0.66503424  0.71845535     0.13300
H881        H  0.21573122  0.78067208  0.64949488     0.11000
H882        H  0.20770063  0.77077947  0.53156434     0.13000
C883        C  0.03175538  0.70735637  0.86731001     0.19100
C884        C  0.04857765  0.70844492  0.83194433    -0.19000
C885        C  0.04914775  0.68796620  0.81820156    -0.11300
C886        C  0.03274074  0.66585737  0.83931873     0.21300
C887        C  0.01454265  0.66432465  0.87068739    -0.20600
C888        C  0.01411280  0.68493373  0.88506660    -0.11500
C889        C  0.03447831  0.64432050  0.82917639    -0.15600
C890        C  0.05542879  0.64520083  0.82509283    -0.29500
C891        C  0.03590795  0.73015378  0.89006254    -0.03800
C892        C  0.02413217  0.73234691  0.93056205    -0.40300
H893        H  0.06219106  0.72540312  0.81703631     0.12500
H894        H  0.06275412  0.68954182  0.79193299     0.12100
H895        H  0.00135499  0.64731335  0.88623306     0.11500
H896        H  0.00062222  0.68319263  0.91174216     0.11800
H897        H  0.01821909  0.62740805  0.82572006     0.14500
H898        H  0.07168860  0.66194798  0.83052737     0.13300
H899        H  0.05216956  0.74596365  0.87848124     0.11000
H900        H  0.00763161  0.71775146  0.94441551     0.13000
C901        C  0.11370295  0.52846944  0.66046509     0.19100
C902        C  0.11714309  0.52364608  0.60864958    -0.19000
C903        C  0.12191437  0.50531927  0.59739510    -0.11300
C904        C  0.12338049  0.49129421  0.63796829     0.21300
C905        C  0.11998299  0.49610496  0.68968907    -0.20600
C906        C  0.11527370  0.51443678  0.70097700    -0.11500
C907        C  0.12713958  0.47075507  0.62828038    -0.15600
C908        C  0.13626566  0.46746158  0.58408860    -0.29500
C909        C  0.10768374  0.54760710  0.66970673    -0.03800
C910        C  0.10417053  0.55437097  0.71716398    -0.40300
H911        H  0.11582042  0.53392953  0.57646837     0.12500
H912        H  0.12379252  0.50188697  0.55687999     0.12100
H913        H  0.12083463  0.48548185  0.72172177     0.11500
H914        H  0.11260594  0.51710854  0.74142096     0.11800
H915        H  0.12252353  0.45787195  0.65983070     0.14500
H916        H  0.14216421  0.48054854  0.55285043     0.13300
H917        H  0.10528243  0.55610665  0.63516003     0.11000
H918        H  0.10607715  0.54628183  0.75273786     0.13000
C919        C  0.95101388  0.62324247  0.53925278     0.19100
C920        C  0.97240711  0.62774340  0.51703034    -0.19000
C921        C  0.98975007  0.62656911  0.54756477    -0.11300
C922        C  0.98606957  0.62103873  0.60133467     0.21300
C923        C  0.96507430  0.61760576  0.62384051    -0.20600
C924        C  0.94773258  0.61864187  0.59329273    -0.11500
C925        C  0.00297458  0.61783457  0.63538266    -0.15600
C926        C  0.02062388  0.61470935  0.61763263    -0.29500
C927        C  0.93264443  0.62384099  0.50540130    -0.03800
C928        C  0.90940513  0.61070075  0.51530494    -0.40300
H929        H  0.97553429  0.63174955  0.47562703     0.12500
H930        H  0.00585077  0.62998593  0.52869750     0.12100
H931        H  0.96184548  0.61365840  0.66523768     0.11500
H932        H  0.93186648  0.61597144  0.61221591     0.11800
H933        H  0.99934523  0.61583792  0.67712866     0.14500
H934        H  0.02432969  0.61571756  0.57614859     0.13300
H935        H  0.93836222  0.63447405  0.46983118     0.11000
H936        H  0.90338530  0.59871205  0.54867822     0.13000
C937        C  0.79613840  0.25095796  0.31823176     0.19100
C938        C  0.79905817  0.26366204  0.27165632    -0.19000
C939        C  0.81862912  0.28634485  0.26511332    -0.11300
C940        C  0.83580230  0.29665277  0.30508082     0.21300
C941        C  0.83313508  0.28365116  0.35105272    -0.20600
C942        C  0.81352829  0.26109909  0.35771101    -0.11500
C943        C  0.85706307  0.32050772  0.29982272    -0.15600
C944        C  0.85797286  0.33750143  0.26791673    -0.29500
C945        C  0.77596018  0.22642190  0.32319925    -0.03800
C946        C  0.76681666  0.21675843  0.36990070    -0.40300
H947        H  0.78620861  0.25597005  0.24020861     0.12500
H948        H  0.82045692  0.29540739  0.22827769     0.12100
H949        H  0.84630235  0.29096931  0.38197744     0.11500
H950        H  0.81242863  0.25140603  0.39322413     0.11800
H951        H  0.87220030  0.32452478  0.32466916     0.14500
H952        H  0.84270926  0.33427616  0.24454906     0.13300
H953        H  0.76930130  0.21575366  0.28788557     0.11000
H954        H  0.77293765  0.22759514  0.40502935     0.13000
C955        C  0.94668299  0.33258708  0.10369275     0.19100
C956        C  0.96626348  0.33338637  0.07956571    -0.19000
C957        C  0.96574882  0.31239037  0.06437083    -0.11300
C958        C  0.94566810  0.29012844  0.07378063     0.21300
C959        C  0.92667586  0.28933634  0.10068588    -0.20600
C960        C  0.92709609  0.31029057  0.11533622    -0.11500
C961        C  0.94303977  0.26750331  0.05317159    -0.15600
C962        C  0.95281268  0.26643062  0.00791107    -0.29500
C963        C  0.94754192  0.35513262  0.11876651    -0.03800
C964        C  0.92809370  0.35725274  0.12169274    -0.40300
H965        H  0.98181871  0.35033169  0.07150452     0.12500
H966        H  0.98099393  0.31366364  0.04509711     0.12100
H967        H  0.91110766  0.27242752  0.10901378     0.11500
H968        H  0.91212306  0.30894553  0.13604847     0.11800
H969        H  0.92932615  0.25100515  0.07014455     0.14500
H970        H  0.96465529  0.28271613  0.98734591     0.13300
H971        H  0.96462661  0.37021769  0.12886976     0.11000
H972        H  0.91104397  0.34243695  0.11049923     0.13000
C973        C  0.88201643  0.47720082  0.29527029     0.19100
C974        C  0.87583968  0.49124481  0.26433631    -0.19000
C975        C  0.87000626  0.50714138  0.28751530    -0.11300
C976        C  0.87033749  0.50948765  0.34246925     0.21300
C977        C  0.87723654  0.49597962  0.37335521    -0.20600
C978        C  0.88294227  0.47996148  0.35015507    -0.11500
C979        C  0.86488235  0.52681830  0.36813224    -0.15600
C980        C  0.85062426  0.53378050  0.34559926    -0.29500
C981        C  0.88843656  0.46069481  0.26915564    -0.03800
C982        C  0.88573322  0.44087499  0.29261671    -0.40300
H983        H  0.87550205  0.48989636  0.22205253     0.12500
H984        H  0.86583621  0.51796756  0.26202773     0.12100
H985        H  0.87821165  0.49782654  0.41558352     0.11500
H986        H  0.88858521  0.47019892  0.37534717     0.11800
H987        H  0.87311230  0.53430869  0.40573893     0.14500
H988        H  0.84179212  0.52573763  0.30887830     0.13300
H989        H  0.89544323  0.46491502  0.22974129     0.11000
H990        H  0.87796864  0.43615999  0.33124080     0.13000
C991        C  0.03972378  0.36728229  0.39188078     0.19100
C992        C  0.01612019  0.35451769  0.40776501    -0.19000
C993        C  0.99852460  0.35612370  0.37916676    -0.11300
C994        C  0.00429630  0.37021144  0.33360907     0.21300
C995        C  0.02764854  0.38161997  0.31599201    -0.20600
C996        C  0.04522193  0.38034014  0.34494567    -0.11500
C997        C  0.98694843  0.37447273  0.30449788    -0.15600
C998        C  0.96902515  0.37538987  0.32780794    -0.29500
C999        C  0.05854245  0.36749850  0.42534045    -0.03800
C1000       C  0.07924938  0.38759731  0.43242559    -0.40300
H1001       H  0.01144607  0.34403168  0.44338672     0.12500
H1002       H  0.98055772  0.34655081  0.39298127     0.12100
H1003       H  0.03249750  0.39232509  0.28066975     0.11500
H1004       H  0.06317182  0.38979661  0.33091043     0.11800
H1005       H  0.99100652  0.38026658  0.26399200     0.14500
H1006       H  0.96558656  0.37113316  0.36911783     0.13300
H1007       H  0.05475888  0.35157006  0.44725038     0.11000
H1008       H  0.08207790  0.40394836  0.41387242     0.13000
C1009       C  0.00283029  0.51658055  0.94433506     0.19100
C1010       C  0.97895313  0.50646147  0.95769903    -0.19000
C1011       C  0.97039428  0.49371676  0.00454474    -0.11300
C1012       C  0.98551413  0.49041807  0.03913160     0.21300
C1013       C  0.00944003  0.50075733  0.02595555    -0.20600
C1014       C  0.01800061  0.51354451  0.97918887    -0.11500
C1015       C  0.97714884  0.47596135  0.08840572    -0.15600
C1016       C  0.95436591  0.46003776  0.09783848    -0.29500
C1017       C  0.01109954  0.52987246  0.89369161    -0.03800
C1018       C  0.03372434  0.54637850  0.88461790    -0.40300
H1019       H  0.96684977  0.50857543  0.93190049     0.12500
H1020       H  0.95197071  0.48670377  0.01330794     0.12100
H1021       H  0.02154136  0.49853357  0.05152345     0.11500
H1022       H  0.03640346  0.52050693  0.97017049     0.11800
H1023       H  0.99043245  0.47706168  0.11599675     0.14500
H1024       H  0.94089612  0.45750099  0.06939678     0.13300
H1025       H  0.99787641  0.52704921  0.86410897     0.11000
H1026       H  0.04688972  0.55077331  0.91519576     0.13000
C1027       C  0.00816543  0.50891688  0.53506396     0.19100
C1028       C  0.02003483  0.51101370  0.48800136    -0.19000
C1029       C  0.00789015  0.49772630  0.44388009    -0.11300
C1030       C  0.98349070  0.48185290  0.44605005     0.21300
C1031       C  0.97166339  0.47968477  0.49319661    -0.20600
C1032       C  0.98379922  0.49293821  0.53728263    -0.11500
C1033       C  0.96949903  0.46679754  0.40113227    -0.15600
C1034       C  0.97847346  0.46340912  0.35668759    -0.29500
C1035       C  0.02192809  0.52426107  0.57984524    -0.03800
C1036       C  0.01249151  0.52850692  0.62240800    -0.40300
H1037       H  0.03880095  0.52325636  0.48508997     0.12500
H1038       H  0.01772914  0.50021298  0.40841735     0.12100
H1039       H  0.95288933  0.46747739  0.49615114     0.11500
H1040       H  0.97395135  0.49036829  0.57277165     0.11800
H1041       H  0.95053787  0.45663565  0.40670763     0.14500
H1042       H  0.99728854  0.47257605  0.34987420     0.13300
H1043       H  0.04094798  0.53424900  0.57517319     0.11000
H1044       H  0.99358615  0.51979785  0.62758801     0.13000
C1045       C  0.85245112  0.08271044  0.96724969     0.19100
C1046       C  0.84888236  0.07153287  0.01643011    -0.19000
C1047       C  0.82987205  0.04850056  0.02478992    -0.11300
C1048       C  0.81380734  0.03604266  0.98399991     0.21300
C1049       C  0.81731999  0.04723694  0.93500522    -0.20600
C1050       C  0.83630028  0.07015202  0.92659476    -0.11500
C1051       C  0.79263831  0.01191490  0.99083396    -0.15600
C1052       C  0.78999435  0.99639374  0.02932259    -0.29500
C1053       C  0.87216477  0.10786064  0.96110122    -0.03800
C1054       C  0.87931374  0.11920687  0.91462117    -0.40300
H1055       H  0.86071554  0.08078101  0.04879737     0.12500
H1056       H  0.82755813  0.04085430  0.06354206     0.12100
H1057       H  0.80515202  0.03825019  0.90295869     0.11500
H1058       H  0.83766065  0.07798628  0.88842007     0.11800
H1059       H  0.77883221  0.00630969  0.96121154     0.14500
H1060       H  0.80391534  0.00095197  0.05808976     0.13300
H1061       H  0.88058518  0.11771452  0.99661989     0.11000
H1062       H  0.87145780  0.10986370  0.87843962     0.13000
C1063       C  0.72301528  0.00963751  0.18863134     0.19100
C1064       C  0.70762949  0.00612419  0.23013777    -0.19000
C1065       C  0.70551526  0.02510404  0.24934542    -0.11300
C1066       C  0.71906530  0.04805023  0.22804492     0.21300
C1067       C  0.73358488  0.05126014  0.18518790    -0.20600
C1068       C  0.73566672  0.03229043  0.16592578    -0.11500
C1069       C  0.72017520  0.06936419  0.25200963    -0.15600
C1070       C  0.71649963  0.07045780  0.30329545    -0.29500
C1071       C  0.72680733  0.99042101  0.16846165    -0.03800
C1072       C  0.71117795  0.96714721  0.17372454    -0.40300
H1073       H  0.69771353  0.98900155  0.24901558     0.12500
H1074       H  0.69355642  0.02174594  0.28137527     0.12100
H1075       H  0.74410367  0.06871603  0.16789527     0.11500
H1076       H  0.74747792  0.03540739  0.13360263     0.11800
H1077       H  0.72750346  0.08557160  0.22875534     0.14500
H1078       H  0.71061562  0.05486377  0.32799002     0.13300
H1079       H  0.74237245  0.99571286  0.14470828     0.11000
H1080       H  0.69451450  0.96124629  0.19326765     0.13000
C1081       C  0.76563636  0.85525451  0.99637667     0.19100
C1082       C  0.76727465  0.83817111  0.02730768    -0.19000
C1083       C  0.77237779  0.82163804  0.00474741    -0.11300
C1084       C  0.77592109  0.82169946  0.95035396     0.21300
C1085       C  0.77337790  0.83816878  0.91903970    -0.20600
C1086       C  0.76840792  0.85485535  0.94170210    -0.11500
C1087       C  0.78174617  0.80439948  0.92579974    -0.15600
C1088       C  0.79436099  0.79632731  0.95185487    -0.29500
C1089       C  0.75963950  0.87218693  0.02209278    -0.03800
C1090       C  0.76477815  0.89332142  0.00120799    -0.40300
H1091       H  0.76463614  0.83763314  0.06924185     0.12500
H1092       H  0.77314790  0.80857603  0.03001887     0.12100
H1093       H  0.77546963  0.83827445  0.87696463     0.11500
H1094       H  0.76628695  0.86702886  0.91610191     0.11800
H1095       H  0.77582002  0.79845803  0.88593645     0.14500
H1096       H  0.80111995  0.80326024  0.99073632     0.13300
H1097       H  0.75043406  0.86691368  0.05924506     0.11000
H1098       H  0.77444642  0.89908502  0.96477191     0.13000
C1099       C  0.60506950  0.93675964  0.84145878     0.19100
C1100       C  0.61629397  0.95351320  0.88187453    -0.19000
C1101       C  0.63801569  0.95777304  0.90254457    -0.11300
C1102       C  0.64889072  0.94527448  0.88344942     0.21300
C1103       C  0.63798314  0.92914183  0.84216868    -0.20600
C1104       C  0.61628234  0.92479618  0.82177385    -0.11500
C1105       C  0.67062739  0.94710856  0.90727761    -0.15600
C1106       C  0.67687995  0.95284308  0.95781820    -0.29500
C1107       C  0.58151559  0.93069837  0.81950716    -0.03800
C1108       C  0.57222180  0.94509725  0.82234435    -0.40300
H1109       H  0.60815926  0.96291540  0.89872385     0.12500
H1110       H  0.64605973  0.97067240  0.93368459     0.12100
H1111       H  0.64590924  0.91924017  0.82670101     0.11500
H1112       H  0.60812220  0.91185657  0.79066134     0.11800
H1113       H  0.67960072  0.93979427  0.88489936     0.14500
H1114       H  0.66711546  0.95851646  0.98224062     0.13300
H1115       H  0.57200961  0.91424429  0.79747152     0.11000
H1116       H  0.58202888  0.96234887  0.84097193     0.13000
C1117       C  0.54460758  0.80633804  0.60304259     0.19100
C1118       C  0.55789057  0.83112674  0.59735602    -0.19000
C1119       C  0.55046891  0.84596334  0.61979777    -0.11300
C1120       C  0.52919891  0.83635861  0.64788407     0.21300
C1121       C  0.51599203  0.81155929  0.65400962    -0.20600
C1122       C  0.52346710  0.79669310  0.63164528    -0.11500
C1123       C  0.52038734  0.85168500  0.67101454    -0.15600
C1124       C  0.52622465  0.87323739  0.65129686    -0.29500
C1125       C  0.55350701  0.79130093  0.57897098    -0.03800
C1126       C  0.54805068  0.76967525  0.59743585    -0.40300
H1127       H  0.57432525  0.83911428  0.57605478     0.12500
H1128       H  0.56169728  0.86496912  0.61556043     0.12100
H1129       H  0.49959481  0.80361284  0.67542267     0.11500
H1130       H  0.51239811  0.77767919  0.63617216     0.11800
H1131       H  0.50794214  0.84460772  0.70305555     0.14500
H1132       H  0.53744237  0.87967023  0.61716177     0.13300
H1133       H  0.56649069  0.79907719  0.54804086     0.11000
H1134       H  0.53662986  0.76252613  0.63114331     0.13000
C1135       C  0.69846526  0.70644780  0.76877013     0.19100
C1136       C  0.67889995  0.68694569  0.74562616    -0.19000
C1137       C  0.66064442  0.68958314  0.72330917    -0.11300
C1138       C  0.66141986  0.71163855  0.72534836     0.21300
C1139       C  0.68054325  0.73084767  0.75032381    -0.20600
C1140       C  0.69902455  0.72838300  0.77133807    -0.11500
C1141       C  0.64283093  0.71543508  0.70133856    -0.15600
C1142       C  0.63320263  0.70651250  0.65426548    -0.29500
C1143       C  0.71769117  0.70351688  0.79230488    -0.03800
C1144       C  0.74043940  0.72051875  0.78827365    -0.40300
H1145       H  0.67795260  0.66979174  0.74408895     0.12500
H1146       H  0.64585789  0.67438658  0.70503526     0.12100
H1147       H  0.68139925  0.74795317  0.75265255     0.11500
H1148       H  0.71358164  0.74353981  0.79033539     0.11800
H1149       H  0.63957426  0.72874897  0.71907185     0.14500
H1150       H  0.63835928  0.69528214  0.63333876     0.13300
H1151       H  0.71301355  0.68718160  0.81344962     0.11000
H1152       H  0.74507086  0.73616242  0.76444893     0.13000
C1153       C  0.67215200  0.84892553  0.26475640     0.19100
C1154       C  0.67187184  0.85546701  0.31707680    -0.19000
C1155       C  0.65739906  0.83860523  0.35431435    -0.11300
C1156       C  0.64286293  0.81457929  0.34025507     0.21300
C1157       C  0.64299560  0.80806934  0.28793337    -0.20600
C1158       C  0.65752902  0.82488321  0.25077398    -0.11500
C1159       C  0.62759144  0.79572861  0.37870266    -0.15600
C1160       C  0.63200598  0.79734526  0.43068272    -0.29500
C1161       C  0.68766399  0.86773671  0.22631520    -0.03800
C1162       C  0.68508342  0.86518651  0.17380119    -0.40300
H1163       H  0.68274933  0.87379420  0.32915501     0.12500
H1164       H  0.65748363  0.84459550  0.39381323     0.12100
H1165       H  0.63208815  0.78974266  0.27587726     0.11500
H1166       H  0.65736661  0.81871749  0.21146724     0.11800
H1167       H  0.61351954  0.77907139  0.36318768     0.14500
H1168       H  0.64711845  0.81309207  0.44645165     0.13300
H1169       H  0.70051153  0.88500336  0.24185158     0.11000
H1170       H  0.67125198  0.84877317  0.15716736     0.13000
C1171       C  0.64573034  0.81701872  0.75882403     0.19100
C1172       C  0.63431415  0.81516480  0.80631111    -0.19000
C1173       C  0.64648725  0.83013914  0.84823040    -0.11300
C1174       C  0.67033978  0.84760567  0.84310941     0.21300
C1175       C  0.68173763  0.84947971  0.79557436    -0.20600
C1176       C  0.66956914  0.83446817  0.75367830    -0.11500
C1177       C  0.68398879  0.86433278  0.88588498    -0.15600
C1178       C  0.67407640  0.86967834  0.92563309    -0.29500
C1179       C  0.63209563  0.80029247  0.71607926    -0.03800
C1180       C  0.64193895  0.79433134  0.67719010    -0.40300
H1181       H  0.61597919  0.80180419  0.81129497     0.12500
H1182       H  0.63717380  0.82765547  0.88455081     0.12100
H1183       H  0.70007144  0.86285095  0.79057029     0.11500
H1184       H  0.67884159  0.83686918  0.71731228     0.11800
H1185       H  0.70307771  0.87390261  0.88242197     0.14500
H1186       H  0.65508141  0.86132062  0.92886826     0.13300
H1187       H  0.61300713  0.79112989  0.71911190     0.11000
H1188       H  0.66090758  0.80220544  0.67467050     0.13000
C1189       C  0.29665478  0.46363350  0.64008562     0.19100
C1190       C  0.28940178  0.46436320  0.58852313    -0.19000
C1191       C  0.26681679  0.46073001  0.57796573    -0.11300
C1192       C  0.25078425  0.45583019  0.61898177     0.21300
C1193       C  0.25827738  0.45565252  0.67066154    -0.20600
C1194       C  0.28091272  0.45941956  0.68121900    -0.11500
C1195       C  0.22594866  0.45001320  0.60990851    -0.15600
C1196       C  0.21460367  0.44277513  0.56356500    -0.29500
C1197       C  0.32014125  0.46587072  0.64895259    -0.03800
C1198       C  0.33232692  0.47312684  0.69432535    -0.40300
H1199       H  0.30125646  0.46765679  0.55615427     0.12500
H1200       H  0.26213453  0.46173637  0.53771812     0.12100
H1201       H  0.24631265  0.45189999  0.70302434     0.11500
H1202       H  0.28565395  0.45818445  0.72134234     0.11800
H1203       H  0.21597605  0.44977268  0.64399352     0.14500
H1204       H  0.22366016  0.44168225  0.52924984     0.13300
H1205       H  0.32798909  0.46184338  0.61599195     0.11000
H1206       H  0.32568727  0.47882233  0.72672306     0.13000
C1207       C  0.31435356  0.38530183  0.86625262     0.19100
C1208       C  0.29110264  0.37486314  0.84734147    -0.19000
C1209       C  0.27289872  0.35537875  0.87296389    -0.11300
C1210       C  0.27762628  0.34602854  0.91843898     0.21300
C1211       C  0.30091294  0.35642864  0.93721315    -0.20600
C1212       C  0.31914597  0.37580987  0.91135101    -0.11500
C1213       C  0.25854052  0.32725631  0.95032072    -0.15600
C1214       C  0.23686625  0.31199585  0.93161535    -0.29500
C1215       C  0.33283274  0.40680743  0.83963463    -0.03800
C1216       C  0.35580245  0.41320845  0.84035570    -0.40300
H1217       H  0.28695115  0.38203645  0.81297225     0.12500
H1218       H  0.25511462  0.34841360  0.85818326     0.12100
H1219       H  0.30494020  0.34982901  0.97269268     0.11500
H1220       H  0.33674311  0.38379581  0.92787843     0.11800
H1221       H  0.26234687  0.32657391  0.99165939     0.14500
H1222       H  0.23287793  0.31148806  0.89012583     0.13300
H1223       H  0.32711447  0.41714806  0.81627519     0.11000
H1224       H  0.36172787  0.40210891  0.85966171     0.13000
C1225       C  0.50080452  0.62956340  0.62514160     0.19100
C1226       C  0.49958170  0.61762513  0.67211333    -0.19000
C1227       C  0.48046861  0.59508932  0.68250414    -0.11300
C1228       C  0.46184265  0.58376927  0.64607762     0.21300
C1229       C  0.46309089  0.59558285  0.59882074    -0.20600
C1230       C  0.48227341  0.61824243  0.58841269    -0.11500
C1231       C  0.44193056  0.55905967  0.65445103    -0.15600
C1232       C  0.43585863  0.54864258  0.70198042    -0.29500
C1233       C  0.52207614  0.65334616  0.61633855    -0.03800
C1234       C  0.52441410  0.66877183  0.57795279    -0.40300
H1235       H  0.51366222  0.62569114  0.70091992     0.12500
H1236       H  0.48086178  0.58642331  0.71850857     0.12100
H1237       H  0.44923863  0.58715603  0.56962110     0.11500
H1238       H  0.48260354  0.62646293  0.55123588     0.11800
H1239       H  0.43250329  0.54882993  0.62002300     0.14500
H1240       H  0.44462047  0.55871943  0.73694402     0.13300
H1241       H  0.53648698  0.65873634  0.64432879     0.11000
H1242       H  0.51025044  0.66447990  0.55006063     0.13000
C1243       C  0.36354854  0.36038771  0.60757226     0.19100
C1244       C  0.37153829  0.34598352  0.63103451    -0.19000
C1245       C  0.37092715  0.32711215  0.60367078    -0.11300
C1246       C  0.36195417  0.32196784  0.55232812     0.21300
C1247       C  0.35281779  0.33554576  0.52960323    -0.20600
C1248       C  0.35381282  0.35479184  0.55674723    -0.11500
C1249       C  0.36215494  0.30262346  0.52195589    -0.15600
C1250       C  0.38034943  0.29840882  0.52476971    -0.29500
C1251       C  0.36646496  0.38127199  0.63754175    -0.03800
C1252       C  0.36914934  0.40151151  0.61580533    -0.40300
H1253       H  0.37888675  0.34973006  0.67033815     0.12500
H1254       H  0.37748714  0.31653702  0.62274398     0.12100
H1255       H  0.34550667  0.33165158  0.49029605     0.11500
H1256       H  0.34697777  0.36516218  0.53794511     0.11800
H1257       H  0.34806256  0.29296278  0.49366976     0.14500
H1258       H  0.39564949  0.30968778  0.54886640     0.13300
H1259       H  0.36951695  0.38100670  0.67943597     0.11000
H1260       H  0.36730895  0.40278703  0.57378749     0.13000
C1261       C  0.73970538  0.55749336  0.31469762     0.19100
C1262       C  0.72908437  0.55216018  0.26480550    -0.19000
C1263       C  0.70512280  0.54492770  0.25827554    -0.11300
C1264       C  0.69121336  0.54316871  0.30168249     0.21300
C1265       C  0.70191841  0.54865699  0.35158629    -0.20600
C1266       C  0.72581733  0.55559097  0.35817055    -0.11500
C1267       C  0.66609740  0.53735790  0.29625835    -0.15600
C1268       C  0.65206304  0.52617253  0.25459896    -0.29500
C1269       C  0.76556326  0.56656330  0.31949914    -0.03800
C1270       C  0.77590608  0.56310171  0.36206568    -0.40300
H1271       H  0.73945525  0.55379306  0.23055685     0.12500
H1272       H  0.69787864  0.54155059  0.21900678     0.12100
H1273       H  0.69178647  0.54783781  0.38567764     0.11500
H1274       H  0.73353461  0.56020478  0.39699969     0.11800
H1275       H  0.65881926  0.54254255  0.32840451     0.14500
H1276       H  0.65845812  0.51977677  0.22307836     0.13300
H1277       H  0.77640479  0.57590082  0.28594076     0.11000
H1278       H  0.76511697  0.55244441  0.39446752     0.13000
C1279       C  0.69328744  0.65462997  0.02504381     0.19100
C1280       C  0.67167736  0.63849465  0.00172333    -0.19000
C1281       C  0.65564234  0.61793421  0.02826902    -0.11300
C1282       C  0.66111178  0.61300401  0.07857684     0.21300
C1283       C  0.68251009  0.62938346  0.10236015    -0.20600
C1284       C  0.69841192  0.65013247  0.07607519    -0.11500
C1285       C  0.64531200  0.59053657  0.10625002    -0.15600
C1286       C  0.62180260  0.57938571  0.10049951    -0.29500
C1287       C  0.71180931  0.67300834  0.99175647    -0.03800
C1288       C  0.73047318  0.69289941  0.01032163    -0.40300
H1289       H  0.66762137  0.64133406  0.96197072     0.12500
H1290       H  0.63952940  0.60543733  0.00832626     0.12100
H1291       H  0.68713028  0.62587392  0.14098183     0.11500
H1292       H  0.71525892  0.66181254  0.09445931     0.11800
H1293       H  0.65306274  0.58395555  0.13507936     0.14500
H1294       H  0.61364975  0.58707655  0.07590706     0.13300
H1295       H  0.71152707  0.66846189  0.95068480     0.11000
H1296       H  0.73072406  0.69895488  0.05000997     0.13000
C1297       C  0.47917005  0.36381154  0.31859874     0.19100
C1298       C  0.48265964  0.37528011  0.26988860    -0.19000
C1299       C  0.50205930  0.39801698  0.26150756    -0.11300
C1300       C  0.51862973  0.41004428  0.30186493     0.21300
C1301       C  0.51510353  0.39862714  0.35060529    -0.20600
C1302       C  0.49573095  0.37585585  0.35895956    -0.11500
C1303       C  0.53854738  0.43509237  0.29602282    -0.15600
C1304       C  0.54713108  0.44555417  0.24935118    -0.29500
C1305       C  0.45768745  0.33982781  0.32593676    -0.03800
C1306       C  0.45490814  0.32484232  0.36575395    -0.40300
H1307       H  0.47014992  0.36669738  0.23817268     0.12500
H1308       H  0.50345879  0.40630094  0.22383460     0.12100
H1309       H  0.52727056  0.40751246  0.38271411     0.11500
H1310       H  0.49361097  0.36818478  0.39757803     0.11800
H1311       H  0.54580925  0.44552429  0.33144257     0.14500
H1312       H  0.54040056  0.43526507  0.21369091     0.13300
H1313       H  0.44386007  0.33398622  0.29635517     0.11000
H1314       H  0.46888686  0.32969941  0.39441617     0.13000
C1315       C  0.61709039  0.66580957  0.41732916     0.19100
C1316       C  0.63443227  0.66551639  0.38589745    -0.19000
C1317       C  0.63255816  0.64385789  0.37072913    -0.11300
C1318       C  0.61347558  0.62210181  0.38769601     0.21300
C1319       C  0.59700733  0.62255742  0.42175001    -0.20600
C1320       C  0.59867182  0.64411418  0.43614242    -0.11500
C1321       C  0.60916244  0.59863260  0.36829574    -0.15600
C1322       C  0.61473536  0.59570397  0.31943760    -0.29500
C1323       C  0.61875409  0.68876597  0.43212338    -0.03800
C1324       C  0.59937097  0.69090733  0.43647310    -0.40300
H1325       H  0.64910663  0.68203373  0.37202103     0.12500
H1326       H  0.64595111  0.64419420  0.34560396     0.12100
H1327       H  0.58231288  0.60611286  0.43590479     0.11500
H1328       H  0.58553923  0.64378769  0.46216348     0.11800
H1329       H  0.59767064  0.58292843  0.39116661     0.14500
H1330       H  0.62422172  0.61111618  0.29428691     0.13300
H1331       H  0.63603212  0.70379810  0.44106978     0.11000
H1332       H  0.58231112  0.67599587  0.42552622     0.13000
C1333       C  0.47312852  0.49320778  0.93774699     0.19100
C1334       C  0.46644288  0.48469336  0.98892134    -0.19000
C1335       C  0.48323468  0.48660680  0.02585218    -0.11300
C1336       C  0.50724680  0.49753090  0.01251622     0.21300
C1337       C  0.51392498  0.50611951  0.96136228    -0.20600
C1338       C  0.49712772  0.50416451  0.92442173    -0.11500
C1339       C  0.52592266  0.50095193  0.05094227    -0.15600
C1340       C  0.52342513  0.50193788  0.10287195    -0.29500
C1341       C  0.45454768  0.48983637  0.89917731    -0.03800
C1342       C  0.45684976  0.48787333  0.84751466    -0.40300
H1343       H  0.44807209  0.47609190  0.00009592     0.12500
H1344       H  0.47719980  0.47920071  0.06439619     0.12100
H1345       H  0.53229376  0.51476305  0.95015764     0.11500
H1346       H  0.50310620  0.51154952  0.88581688     0.11800
H1347       H  0.54308744  0.50526238  0.03581005     0.14500
H1348       H  0.50704836  0.49954000  0.11868468     0.13300
H1349       H  0.43768812  0.48662110  0.91408088     0.11000
H1350       H  0.47290209  0.48919336  0.83233262     0.13000
C1351       C  0.47778201  0.49896809  0.51855214     0.19100
C1352       C  0.47295260  0.50415225  0.46807223    -0.19000
C1353       C  0.48747233  0.50624152  0.42637998    -0.11300
C1354       C  0.50730067  0.50354755  0.43493734     0.21300
C1355       C  0.51236062  0.49885248  0.48567183    -0.20600
C1356       C  0.49780268  0.49668870  0.52728253    -0.11500
C1357       C  0.52292789  0.50508464  0.39203990    -0.15600
C1358       C  0.52613291  0.51805042  0.34854494    -0.29500
C1359       C  0.46136020  0.49567663  0.56098106    -0.03800
C1360       C  0.45674955  0.48016646  0.60041416    -0.40300
H1361       H  0.45754662  0.50593629  0.46065726     0.12500
H1362       H  0.48278680  0.50937284  0.38755480     0.12100
H1363       H  0.52768360  0.49693722  0.49314298     0.11500
H1364       H  0.50229064  0.49334102  0.56613883     0.11800
H1365       H  0.53361810  0.49671308  0.39843097     0.14500
H1366       H  0.51711546  0.52815824  0.34305773     0.13300
H1367       H  0.45109472  0.50462673  0.55683282     0.11000
H1368       H  0.46550994  0.46968740  0.60291051     0.13000
loop_ 
_geom_bond_atom_site_label_1 
_geom_bond_atom_site_label_2 
_geom_bond_distance 
_geom_bond_site_symmetry_2 
_ccdc_geom_bond_type 
O1          Cr19   1.970       .  S
O1            C9   1.261       .  A
O2          Cr19   2.031       .  S
O2            C3   1.273       .  A
C3            O4   1.257       .  A
C3         C1340   1.471       .  S
O4          Cr20   1.963       .  S
O5          Cr20   2.000       .  S
O5            C6   1.259       .  A
C6            O7   1.255       .  A
C6         C1358   1.466       .  S
O7          Cr21   1.963       .  S
O8          Cr21   2.031       .  S
O8            C9   1.274       .  A
C9         C1304   1.487       .  S
O10         Cr19   2.017       .  S
O10          C18   1.266       .  A
O11         Cr19   1.987       .  S
O11          C12   1.261       .  A
C12          O13   1.260       .  A
C12        C1286   1.468       .  S
O13         Cr20   2.002       .  S
O14         Cr20   1.963       .  S
O14          C15   1.258       .  A
C15          O16   1.275       .  A
C15        C1322   1.475       .  S
O16         Cr21   2.039       .  S
O17         Cr21   1.978       .  S
O17          C18   1.259       .  A
C18        C1268   1.486       .  S
Cr19         O22   1.769       .  S
Cr20         O22   1.768       .  S
Cr21         O22   1.769       .  S
O23         Cr41   2.015       .  S
O23          C31   1.266       .  A
O24         Cr41   1.974       .  S
O24          C25   1.261       .  A
C25          O26   1.266       .  A
C25        C1216   1.472       .  S
O26         Cr42   2.013       .  S
O27         Cr42   1.961       .  S
O27          C28   1.258       .  A
C28          O29   1.270       .  A
C28        C1252   1.482       .  S
O29         Cr43   2.031       .  S
O30         Cr43   1.965       .  S
O30          C31   1.258       .  A
C31        C1198   1.475       .  S
O32         Cr41   1.972       .  S
O32          C40   1.261       .  A
O33         Cr41   2.025       .  S
O33          C34   1.269       .  A
C34          O35   1.255       .  A
C34        C1342   1.471       .  S
O35         Cr42   1.963       .  S
O36         Cr42   2.010       .  S
O36          C37   1.264       .  A
C37          O38   1.255       .  A
C37        C1360   1.466       .  S
O38         Cr43   1.954       .  S
O39         Cr43   2.022       .  S
O39          C40   1.271       .  A
C40        C1232   1.480       .  S
Cr41         O44   1.769       .  S
Cr42         O44   1.766       .  S
Cr43         O44   1.766       .  S
O45         Cr63   2.005       .  S
O45          C53   1.267       .  A
O46         Cr63   2.032       .  S
O46          C47   1.269       .  A
C47          O48   1.256       .  A
C47        C1160   1.485       .  S
O48         Cr64   1.973       .  S
O49         Cr64   2.020       .  S
O49          C50   1.270       .  A
C50          O51   1.261       .  A
C50        C1180   1.473       .  S
O51         Cr65   1.962       .  S
O52         Cr65   2.007       .  S
O52          C53   1.264       .  A
C53        C1126   1.483       .  S
O54         Cr63   2.030       .  S
O54          C62   1.272       .  A
O55         Cr63   1.973       .  S
O55          C56   1.261       .  A
C56          O57   1.269       .  A
C56        C1324   1.478       .  S
O57         Cr64   2.013       .  S
O58         Cr64   1.975       .  S
O58          C59   1.253       .  A
C59          O60   1.264       .  A
C59        C1142   1.473       .  S
O60         Cr65   2.013       .  S
O61         Cr65   1.974       .  S
O61          C62   1.262       .  A
C62        C1234   1.484       .  S
Cr63         O66   1.771       .  S
Cr64         O66   1.768       .  S
Cr65         O66   1.768       .  S
O67         Cr85   2.030       .  S
O67          C75   1.271       .  A
O68         Cr85   1.973       .  S
O68          C69   1.262       .  A
C69          O70   1.265       .  A
C69        C1072   1.469       .  S
O70         Cr86   2.007       .  S
O71         Cr86   1.973       .  S
O71          C72   1.255   1_554  A
C72          O73   1.267       .  A
C72        C1106   1.477       .  S
O73         Cr87   2.017       .  S
O74         Cr87   1.982   1_554  S
O74          C75   1.263       .  A
C75        C1052   1.489       .  S
O76         Cr85   1.997       .  S
O76          C84   1.267       .  A
O77         Cr85   2.038       .  S
O77          C78   1.269       .  A
C78          O79   1.255       .  A
C78        C1162   1.484       .  S
O79         Cr86   1.972       .  S
O80         Cr86   2.010   1_556  S
O80          C81   1.266       .  A
C81          O82   1.260       .  A
C81        C1178   1.472       .  S
O82         Cr87   1.966       .  S
O83         Cr87   2.008       .  S
O83          C84   1.266   1_556  A
C84        C1090   1.480       .  S
Cr85         O88   1.769       .  S
Cr86         O88   1.765       .  S
Cr87         O88   1.767   1_556  S
O89        Cr107   1.997       .  S
O89          C97   1.267       .  A
O90        Cr107   1.997       .  S
O90          C91   1.259       .  A
C91          O92   1.260       .  A
C91        C1016   1.484       .  S
O92        Cr108   1.995       .  S
O93        Cr108   2.021       .  S
O93          C94   1.271       .  A
C94          O95   1.260       .  A
C94        C1034   1.479       .  S
O95        Cr109   1.958       .  S
O96        Cr109   2.007       .  S
O96          C97   1.266       .  A
C97         C982   1.478       .  S
O98        Cr107   2.006       .  S
O98         C106   1.262       .  A
O99        Cr107   1.975       .  S
O99         C100   1.264       .  A
C100        O101   1.271       .  A
C100        C964   1.476       .  S
O101       Cr108   2.011       .  S
O102       Cr108   1.974       .  S
O102        C103   1.256       .  A
C103        O104   1.260       .  A
C103        C998   1.479       .  S
O104       Cr109   2.002       .  S
O105       Cr109   1.981       .  S
O105        C106   1.260       .  A
C106        C944   1.474       .  S
Cr107       O110   1.774       .  S
Cr108       O110   1.777       .  S
Cr109       O110   1.772       .  S
O111       Cr129   2.009       .  S
O111        C119   1.262       .  A
O112       Cr129   1.976       .  S
O112        C113   1.263       .  A
C113        O114   1.269       .  A
C113        C890   1.472       .  S
O114       Cr130   2.005       .  S
O115       Cr130   1.973       .  S
O115        C116   1.258       .  A
C116        O117   1.264       .  A
C116        C926   1.481       .  S
O117       Cr131   2.010       .  S
O118       Cr131   1.985       .  S
O118        C119   1.259       .  A
C119        C872   1.480       .  S
O120       Cr129   1.981       .  S
O120        C128   1.264       .  A
O121       Cr129   2.004       .  S
O121        C122   1.262       .  A
C122        O123   1.262       .  A
C122       C1018   1.483       .  S
O123       Cr130   1.993       .  S
O124       Cr130   2.014       .  S
O124        C125   1.267       .  A
C125        O126   1.258       .  A
C125       C1036   1.476       .  S
O126       Cr131   1.960       .  S
O127       Cr131   2.015       .  S
O127        C128   1.271       .  A
C128        C910   1.481       .  S
Cr129       O132   1.774       .  S
Cr130       O132   1.777       .  S
Cr131       O132   1.772       .  S
O133       Cr151   2.022       .  S
O133        C141   1.272       .  A
O134       Cr151   1.998       .  S
O134        C135   1.263       .  A
C135        O136   1.263       .  A
C135        C838   1.491       .  S
O136       Cr152   2.000       .  S
O137       Cr152   2.011       .  S
O137        C138   1.264       .  A
C138        O139   1.256       .  A
C138        C854   1.479   1_556  S
O139       Cr153   1.974       .  S
O140       Cr153   1.970       .  S
O140        C141   1.263       .  A
C141        C818   1.479       .  S
O142       Cr151   2.009       .  S
O142        C150   1.260       .  A
O143       Cr151   2.001       .  S
O143        C144   1.265       .  A
C144        O145   1.262       .  A
C144       C1144   1.475       .  S
O145       Cr152   1.978       .  S
O146       Cr152   1.996       .  S
O146        C147   1.269       .  A
C147        O148   1.265       .  A
C147       C1288   1.471   1_556  S
O148       Cr153   1.986       .  S
O149       Cr153   1.986       .  S
O149        C150   1.254       .  A
C150       C1088   1.478       .  S
Cr151       O154   1.775       .  S
Cr152       O154   1.774       .  S
Cr153       O154   1.775       .  S
O155       Cr173   2.007       .  S
O155        C163   1.260       .  A
O156       Cr173   2.006       .  S
O156        C157   1.266       .  A
C157        O158   1.262       .  A
C157        C928   1.478       .  S
O158       Cr174   1.980       .  S
O159       Cr174   2.005       .  S
O159        C160   1.270       .  A
C160        O161   1.267       .  A
C160        C802   1.481       .  S
O161       Cr175   1.992       .  S
O162       Cr175   1.986       .  S
O162        C163   1.254       .  A
C163        C980   1.477       .  S
O164       Cr173   2.026       .  S
O164        C172   1.273       .  A
O165       Cr173   1.991       .  S
O165        C166   1.262       .  A
C166        O167   1.265       .  A
C166        C836   1.490       .  S
O167       Cr174   2.009       .  S
O168       Cr174   2.010       .  S
O168        C169   1.264       .  A
C169        O170   1.256       .  A
C169        C856   1.476       .  S
O170       Cr175   1.972       .  S
O171       Cr175   1.980       .  S
O171        C172   1.265       .  A
C172       C1270   1.485       .  S
Cr173       O176   1.773       .  S
Cr174       O176   1.774       .  S
Cr175       O176   1.776       .  S
O177       Cr195   2.042       .  S
O177        C185   1.272       .  A
O178       Cr195   1.969       .  S
O178        C179   1.259       .  A
C179        O180   1.265       .  A
C179        C748   1.472       .  S
O180       Cr196   2.012       .  S
O181       Cr196   1.960       .  S
O181        C182   1.257       .  A
C182        O183   1.271       .  A
C182       C1070   1.468       .  S
O183       Cr197   2.022       .  S
O184       Cr197   1.952       .  S
O184        C185   1.254       .  A
C185        C728   1.478       .  S
O186       Cr195   1.963       .  S
O186        C194   1.257       .  A
O187       Cr195   2.045       .  S
O187        C188   1.275       .  A
C188        O189   1.256       .  A
C188        C764   1.473       .  S
O189       Cr196   1.954       .  S
O190       Cr196   2.020       .  S
O190        C191   1.264       .  A
C191        O192   1.254       .  A
C191        C782   1.473       .  S
O192       Cr197   1.959       .  S
O193       Cr197   2.013       .  S
O193        C194   1.268       .  A
C194        C946   1.471       .  S
Cr195       O198   1.770       .  S
Cr196       O198   1.764       .  S
Cr197       O198   1.760       .  S
O199       Cr217   1.976       .  S
O199        C207   1.262       .  A
O200       Cr217   2.034       .  S
O200        C201   1.273       .  A
C201        O202   1.256       .  A
C201        C766   1.476       .  S
O202       Cr218   1.965       .  S
O203       Cr218   2.012       .  S
O203        C204   1.263       .  A
C204        O205   1.256       .  A
C204        C784   1.471   1_556  S
O205       Cr219   1.963       .  S
O206       Cr219   2.023       .  S
O206        C207   1.271       .  A
C207       C1054   1.485       .  S
O208       Cr217   2.019       .  S
O208        C216   1.268       .  A
O209       Cr217   1.987       .  S
O209        C210   1.261       .  A
C210        O211   1.264       .  A
C210        C710   1.479       .  S
O211       Cr218   2.012       .  S
O212       Cr218   1.964       .  S
O212        C213   1.256       .  A
C213        O214   1.272       .  A
C213        C962   1.472   1_556  S
O214       Cr219   2.034       .  S
O215       Cr219   1.973       .  S
O215        C216   1.260       .  A
C216        C694   1.482       .  S
Cr217       O220   1.769       .  S
Cr218       O220   1.767       .  S
Cr219       O220   1.771       .  S
O221       Cr239   1.973       .  S
O221        C229   1.258       .  A
O222       Cr239   2.002       .  S
O222        C223   1.264       .  A
C223        O224   1.263       .  A
C223        C656   1.479       .  S
O224       Cr240   1.991       .  S
O225       Cr240   2.041       .  S
O225        C226   1.272       .  A
C226        O227   1.255       .  A
C226        C674   1.475       .  S
O227       Cr241   1.964       .  S
O228       Cr241   2.013       .  S
O228        C229   1.267       .  A
C229       C1196   1.476       .  S
O230       Cr239   2.019       .  S
O230        C238   1.267       .  A
O231       Cr239   1.965       .  S
O231        C232   1.260       .  A
C232        O233   1.271       .  A
C232       C1000   1.474       .  S
O233       Cr240   2.024       .  S
O234       Cr240   1.969       .  S
O234        C235   1.257       .  A
C235        O236   1.267       .  A
C235        C712   1.478       .  S
O236       Cr241   2.021       .  S
O237       Cr241   1.974       .  S
O237        C238   1.260       .  A
C238        C908   1.482       .  S
Cr239       O242   1.769       .  S
Cr240       O242   1.774       .  S
Cr241       O242   1.769       .  S
O243       Cr261   2.030       .  S
O243        C251   1.270       .  A
O244       Cr261   1.982       .  S
O244        C245   1.264       .  A
C245        O246   1.268       .  A
C245        C638   1.480       .  S
O246       Cr262   2.016       .  S
O247       Cr262   1.967       .  S
O247        C248   1.258   1_554  A
C248        O249   1.266       .  A
C248       C1214   1.475       .  S
O249       Cr263   2.018       .  S
O250       Cr263   1.965       .  S
O250        C251   1.256   1_556  A
C251        C622   1.478   1_554  S
O252       Cr261   1.982       .  S
O252        C260   1.260       .  A
O253       Cr261   2.018       .  S
O253        C254   1.268       .  A
C254        O255   1.263       .  A
C254        C658   1.482       .  S
O255       Cr262   1.979       .  S
O256       Cr262   2.037       .  S
O256        C257   1.271   1_554  A
C257        O258   1.254       .  A
C257        C676   1.476       .  S
O258       Cr263   1.966       .  S
O259       Cr263   2.006       .  S
O259        C260   1.266   1_556  A
C260        C692   1.480       .  S
Cr261       O264   1.771       .  S
Cr262       O264   1.770       .  S
Cr263       O264   1.766   1_556  S
O265       Cr283   1.973       .  S
O265        C273   1.260       .  A
O266       Cr283   2.044       .  S
O266        C267   1.273       .  A
C267        O268   1.257       .  A
C267        C584   1.482       .  S
O268       Cr284   1.968       .  S
O269       Cr284   2.021       .  S
O269        C270   1.266       .  A
C270        O271   1.254       .  A
C270        C604   1.474       .  S
O271       Cr285   1.954       .  S
O272       Cr285   2.018       .  S
O272        C273   1.271       .  A
C273        C874   1.479       .  S
O274       Cr283   2.036       .  S
O274        C282   1.271       .  A
O275       Cr283   1.973       .  S
O275        C276   1.261       .  A
C276        O277   1.267       .  A
C276        C548   1.474       .  S
O277       Cr284   2.017       .  S
O278       Cr284   1.964       .  S
O278        C279   1.256       .  A
C279        O280   1.271       .  A
C279        C566   1.474       .  S
O280       Cr285   2.029       .  S
O281       Cr285   1.970       .  S
O281        C282   1.258       .  A
C282        C532   1.491       .  S
Cr283       O286   1.769       .  S
Cr284       O286   1.767       .  S
Cr285       O286   1.767       .  S
O287       Cr305   1.988       .  S
O287        C295   1.258       .  A
O288       Cr305   2.020       .  S
O288        C289   1.272       .  A
C289        O290   1.263       .  A
C289        C800   1.478       .  S
O290       Cr306   1.973       .  S
O291       Cr306   1.993   1_556  S
O291        C292   1.260       .  A
C292        O293   1.257       .  A
C292        C892   1.466       .  S
O293       Cr307   1.990       .  S
O294       Cr307   1.990   1_554  S
O294        C295   1.260       .  A
C295        C820   1.480   1_455  S
O296       Cr305   2.029       .  S
O296        C304   1.272       .  A
O297       Cr305   1.997       .  S
O297        C298   1.261       .  A
C298        O299   1.258       .  A
C298        C586   1.480       .  S
O299       Cr306   1.992       .  S
O300       Cr306   1.980       .  S
O300        C301   1.263   1_554  A
C301        O302   1.267       .  A
C301        C602   1.472       .  S
O302       Cr307   2.002       .  S
O303       Cr307   1.959       .  S
O303        C304   1.258   1_556  A
C304        C514   1.478       .  S
Cr305       O308   1.779       .  S
Cr306       O308   1.773       .  S
Cr307       O308   1.777   1_556  S
O309       Cr327   1.997       .  S
O309        C317   1.265       .  A
O310       Cr327   2.016       .  S
O310        C311   1.266       .  A
C311        O312   1.261       .  A
C311        C478   1.488       .  S
O312       Cr328   1.986       .  S
O313       Cr328   2.024       .  S
O313        C314   1.271       .  A
C314        O315   1.256       .  A
C314        C494   1.465       .  S
O315       Cr329   1.960       .  S
O316       Cr329   2.005       .  S
O316        C317   1.263       .  A
C317        C730   1.478       .  S
O318       Cr327   2.029       .  S
O318        C326   1.270       .  A
O319       Cr327   1.972       .  S
O319        C320   1.264       .  A
C320        O321   1.267       .  A
C320        C458   1.470       .  S
O321       Cr328   2.009       .  S
O322       Cr328   1.973       .  S
O322        C323   1.257       .  A
C323        O324   1.263       .  A
C323        C550   1.476       .  S
O324       Cr329   2.010       .  S
O325       Cr329   1.976       .  S
O325        C326   1.261       .  A
C326        C440   1.485       .  S
Cr327       O330   1.765       .  S
Cr328       O330   1.776       .  S
Cr329       O330   1.768       .  S
O331       Cr349   2.048       .  S
O331        C339   1.275       .  A
O332       Cr349   1.989       .  S
O332        C333   1.266       .  A
C333        O334   1.266       .  A
C333       C1108   1.478       .  S
O334       Cr350   2.006       .  S
O335       Cr350   1.973       .  S
O335        C336   1.258       .  A
C336        O337   1.263       .  A
C336        C746   1.472       .  S
O337       Cr351   2.009       .  S
O338       Cr351   1.962       .  S
O338        C339   1.257       .  A
C339       C1124   1.484       .  S
O340       Cr349   2.009       .  S
O340        C348   1.265       .  A
O341       Cr349   2.029       .  S
O341        C342   1.270       .  A
C342        O343   1.261       .  A
C342        C476   1.491       .  S
O343       Cr350   1.978       .  S
O344       Cr350   2.022       .  S
O344        C345   1.270       .  A
C345        O346   1.256       .  A
C345        C496   1.466       .  S
O346       Cr351   1.964       .  S
O347       Cr351   2.002       .  S
O347        C348   1.261       .  A
C348        C530   1.485       .  S
Cr349       O352   1.768       .  S
Cr350       O352   1.770       .  S
Cr351       O352   1.767       .  S
O353       Cr371   2.021       .  S
O353        C361   1.268       .  A
O354       Cr371   1.976       .  S
O354        C355   1.263       .  A
C355        O356   1.270       .  A
C355       C1250   1.473       .  S
O356       Cr372   2.009       .  S
O357       Cr372   1.977       .  S
O357        C358   1.255       .  A
C358        O359   1.263       .  A
C358        C640   1.478       .  S
O359       Cr373   2.009       .  S
O360       Cr373   1.990       .  S
O360        C361   1.263       .  A
C361       C1306   1.488       .  S
O362       Cr371   1.992       .  S
O362        C370   1.264       .  A
O363       Cr371   2.007       .  S
O363        C364   1.263       .  A
C364        O365   1.262       .  A
C364        C406   1.491       .  S
O365       Cr372   2.000       .  S
O366       Cr372   2.023       .  S
O366        C367   1.270       .  A
C367        O368   1.260       .  A
C367        C424   1.478       .  S
O368       Cr373   1.962       .  S
O369       Cr373   2.010       .  S
O369        C370   1.265       .  A
C370        C442   1.482       .  S
Cr371       O374   1.772       .  S
Cr372       O374   1.780       .  S
Cr373       O374   1.780       .  S
O375       Cr393   1.997       .  S
O375        C383   1.264       .  A
O376       Cr393   2.027       .  S
O376        C377   1.269       .  A
C377        O378   1.260       .  A
C377        C404   1.494       .  S
O378       Cr394   1.983       .  S
O379       Cr394   2.029       .  S
O379        C380   1.272       .  A
C380        O381   1.260       .  A
C380        C422   1.478   1_556  S
O381       Cr395   1.959       .  S
O382       Cr395   2.003       .  S
O382        C383   1.262       .  A
C383        C620   1.475       .  S
O384       Cr393   2.039       .  S
O384        C392   1.273       .  A
O385       Cr393   1.968       .  S
O385        C386   1.260       .  A
C386        O387   1.271       .  A
C386        C568   1.475       .  S
O387       Cr394   2.018       .  S
O388       Cr394   1.974       .  S
O388        C389   1.256       .  A
C389        O390   1.260   1_556  A
C389        C460   1.471   1_556  S
O390       Cr395   2.001   1_554  S
O391       Cr395   1.966       .  S
O391        C392   1.258       .  A
C392        C512   1.480       .  S
Cr393       O396   1.770       .  S
Cr394       O396   1.774       .  S
Cr395       O396   1.769       .  S
C397        C405   1.506       .  S
C397        C398   1.408       .  A
C397        C402   1.410       .  A
C398        C399   1.409       .  A
C398        H407   1.083       .  S
C399        C400   1.410       .  A
C399        H408   1.081       .  S
C400        C403   1.504       .  S
C400        C401   1.406       .  A
C401        C402   1.403       .  A
C401        H409   1.083       .  S
C402        H410   1.081       .  S
C403        H411   1.087       .  S
C403        C404   1.354       .  D
C404        H412   1.084       .  S
C405        H413   1.087       .  S
C405        C406   1.353       .  D
C406        H414   1.085       .  S
C415        C423   1.486       .  S
C415        C416   1.405       .  A
C415        C420   1.406       .  A
C416        C417   1.398       .  A
C416        H425   1.083       .  S
C417        C418   1.407       .  A
C417        H426   1.080       .  S
C418        C421   1.487       .  S
C418        C419   1.405       .  A
C419        C420   1.398       .  A
C419        H427   1.083       .  S
C420        H428   1.081       .  S
C421        H429   1.087       .  S
C421        C422   1.350       .  D
C422        H430   1.084   1_554  S
C423        H431   1.087       .  S
C423        C424   1.350       .  D
C424        H432   1.084       .  S
C433        C441   1.494       .  S
C433        C434   1.410       .  A
C433        C438   1.403       .  A
C434        C435   1.405       .  A
C434        H443   1.081       .  S
C435        C436   1.410       .  A
C435        H444   1.080       .  S
C436        C439   1.496       .  S
C436        C437   1.404       .  A
C437        C438   1.398       .  A
C437        H445   1.083       .  S
C438        H446   1.084       .  S
C439        H447   1.087       .  S
C439        C440   1.350       .  D
C440        H448   1.083       .  S
C441        H449   1.088       .  S
C441        C442   1.346       .  D
C442        H450   1.085       .  S
C451        C459   1.482   1_554  S
C451        C452   1.403       .  A
C451        C456   1.408       .  A
C452        C453   1.398       .  A
C452        H461   1.084   1_554  S
C453        C454   1.406       .  A
C453        H462   1.082       .  S
C454        C457   1.479       .  S
C454        C455   1.401       .  A
C455        C456   1.395       .  A
C455        H463   1.084       .  S
C456        H464   1.081       .  S
C457        H465   1.088       .  S
C457        C458   1.343       .  D
C458        H466   1.086       .  S
C459        H467   1.087       .  S
C459        C460   1.344   1_556  D
C460        H468   1.085       .  S
C469        C477   1.505       .  S
C469        C470   1.409   1_545  A
C469        C474   1.409   1_554  A
C470        C471   1.406   1_554  A
C470        H479   1.084       .  S
C471        C472   1.409       .  A
C471        H480   1.080       .  S
C472        C475   1.502       .  S
C472        C473   1.407   1_565  A
C473        C474   1.403       .  A
C473        H481   1.084       .  S
C474        H482   1.079       .  S
C475        H483   1.087       .  S
C475        C476   1.354       .  D
C476        H484   1.084       .  S
C477        H485   1.088       .  S
C477        C478   1.353       .  D
C478        H486   1.084       .  S
C487        C495   1.481       .  S
C487        C488   1.403   1_565  A
C487        C492   1.406       .  A
C488        C489   1.396       .  A
C488        H497   1.083       .  S
C489        C490   1.407       .  A
C489        H498   1.082       .  S
C490        C493   1.483       .  S
C490        C491   1.403   1_545  A
C491        C492   1.396       .  A
C491        H499   1.083       .  S
C492        H500   1.082       .  S
C493        H501   1.088       .  S
C493        C494   1.342       .  D
C494        H502   1.085       .  S
C495        H503   1.088   1_565  S
C495        C496   1.344       .  D
C496        H504   1.085       .  S
C505        C513   1.492       .  S
C505        C506   1.402       .  A
C505        C510   1.409   1_554  A
C506        C507   1.402       .  A
C506        H515   1.087       .  S
C507        C508   1.412   1_554  A
C507        H516   1.078       .  S
C508        C511   1.495       .  S
C508        C509   1.403       .  A
C509        C510   1.400       .  A
C509        H517   1.087       .  S
C510        H518   1.079       .  S
C511        H519   1.090       .  S
C511        C512   1.345   1_565  D
C512        H520   1.087   1_546  S
C513        H521   1.092       .  S
C513        C514   1.344       .  D
C514        H522   1.091   1_554  S
C523        C531   1.499       .  S
C523        C524   1.406       .  A
C523        C528   1.409       .  A
C524        C525   1.400       .  A
C524        H533   1.083       .  S
C525        C526   1.404       .  A
C525        H534   1.084       .  S
C526        C529   1.502       .  S
C526        C527   1.413       .  A
C527        C528   1.408       .  A
C527        H535   1.080       .  S
C528        H536   1.081       .  S
C529        H537   1.087       .  S
C529        C530   1.348       .  D
C530        H538   1.083       .  S
C531        H539   1.087       .  S
C531        C532   1.354       .  D
C532        H540   1.084       .  S
C541        C549   1.485   1_565  S
C541        C542   1.404       .  A
C541        C546   1.408       .  A
C542        C543   1.400       .  A
C542        H551   1.083       .  S
C543        C544   1.406       .  A
C543        H552   1.083       .  S
C544        C547   1.480       .  S
C544        C545   1.401       .  A
C545        C546   1.396       .  A
C545        H553   1.084       .  S
C546        H554   1.082       .  S
C547        H555   1.087       .  S
C547        C548   1.343       .  D
C548        H556   1.086       .  S
C549        H557   1.087   1_545  S
C549        C550   1.347       .  D
C550        H558   1.085       .  S
C559        C567   1.487   1_565  S
C559        C560   1.402       .  A
C559        C564   1.408       .  A
C560        C561   1.401       .  A
C560        H569   1.084   1_565  S
C561        C562   1.410       .  A
C561        H570   1.081       .  S
C562        C565   1.488       .  S
C562        C563   1.402       .  A
C563        C564   1.397       .  A
C563        H571   1.084       .  S
C564        H572   1.082       .  S
C565        H573   1.088       .  S
C565        C566   1.344       .  D
C566        H574   1.086       .  S
C567        H575   1.087       .  S
C567        C568   1.345       .  D
C568        H576   1.087   1_545  S
C577        C585   1.494       .  S
C577        C578   1.403       .  A
C577        C582   1.409       .  A
C578        C579   1.401       .  A
C578        H587   1.083       .  S
C579        C580   1.411       .  A
C579        H588   1.081       .  S
C580        C583   1.498       .  S
C580        C581   1.405       .  A
C581        C582   1.403       .  A
C581        H589   1.083       .  S
C582        H590   1.082       .  S
C583        H591   1.087       .  S
C583        C584   1.348       .  D
C584        H592   1.084       .  S
C585        H593   1.087       .  S
C585        C586   1.345       .  D
C586        H594   1.086       .  S
C595        C603   1.478       .  S
C595        C596   1.403       .  A
C595        C600   1.404       .  A
C596        C597   1.395       .  A
C596        H605   1.084       .  S
C597        C598   1.405       .  A
C597        H606   1.081       .  S
C598        C601   1.481       .  S
C598        C599   1.405       .  A
C599        C600   1.396       .  A
C599        H607   1.083       .  S
C600        H608   1.082       .  S
C601        H609   1.087       .  S
C601        C602   1.347       .  D
C602        H610   1.084       .  S
C603        H611   1.087       .  S
C603        C604   1.348       .  D
C604        H612   1.085       .  S
C613        C621   1.494       .  S
C613        C614   1.404       .  A
C613        C618   1.410       .  A
C614        C615   1.401       .  A
C614        H623   1.084   1_556  S
C615        C616   1.409       .  A
C615        H624   1.082       .  S
C616        C619   1.489       .  S
C616        C617   1.401       .  A
C617        C618   1.399       .  A
C617        H625   1.084       .  S
C618        H626   1.081       .  S
C619        H627   1.088       .  S
C619        C620   1.343       .  D
C620        H628   1.086       .  S
C621        H629   1.087   1_556  S
C621        C622   1.346       .  D
C622        H630   1.085       .  S
C631        C639   1.489       .  S
C631        C632   1.408       .  A
C631        C636   1.403       .  A
C632        C633   1.402       .  A
C632        H641   1.081       .  S
C633        C634   1.409       .  A
C633        H642   1.081       .  S
C634        C637   1.490       .  S
C634        C635   1.403       .  A
C635        C636   1.397       .  A
C635        H643   1.083       .  S
C636        H644   1.084       .  S
C637        H645   1.087       .  S
C637        C638   1.346       .  D
C638        H646   1.085       .  S
C639        H647   1.088       .  S
C639        C640   1.347       .  D
C640        H648   1.086       .  S
C649        C657   1.491       .  S
C649        C650   1.403       .  A
C649        C654   1.409       .  A
C650        C651   1.398       .  A
C650        H659   1.084       .  S
C651        C652   1.408       .  A
C651        H660   1.081       .  S
C652        C655   1.494       .  S
C652        C653   1.406       .  A
C653        C654   1.404       .  A
C653        H661   1.083       .  S
C654        H662   1.081       .  S
C655        H663   1.086       .  S
C655        C656   1.347       .  D
C656        H664   1.085       .  S
C657        H665   1.088       .  S
C657        C658   1.347       .  D
C658        H666   1.086       .  S
C667        C675   1.492       .  S
C667        C668   1.404       .  A
C667        C672   1.407       .  A
C668        C669   1.399       .  A
C668        H677   1.083       .  S
C669        C670   1.409       .  A
C669        H678   1.080       .  S
C670        C673   1.498       .  S
C670        C671   1.408       .  A
C671        C672   1.404       .  A
C671        H679   1.083       .  S
C672        H680   1.082       .  S
C673        H681   1.088       .  S
C673        C674   1.350       .  D
C674        H682   1.082       .  S
C675        H683   1.088       .  S
C675        C676   1.346       .  D
C676        H684   1.085       .  S
C685        C693   1.492   1_455  S
C685        C686   1.405   1_556  A
C685        C690   1.407       .  A
C686        C687   1.401       .  A
C686        H695   1.084       .  S
C687        C688   1.409   1_554  A
C687        H696   1.079       .  S
C688        C691   1.495       .  S
C688        C689   1.406       .  A
C689        C690   1.400       .  A
C689        H697   1.084       .  S
C690        H698   1.081       .  S
C691        H699   1.087       .  S
C691        C692   1.350   1_556  D
C692        H700   1.083       .  S
C693        H701   1.087       .  S
C693        C694   1.350       .  D
C694        H702   1.085       .  S
C703        C711   1.485       .  S
C703        C704   1.404       .  A
C703        C708   1.406       .  A
C704        C705   1.401   1_455  A
C704        H713   1.083       .  S
C705        C706   1.408       .  A
C705        H714   1.082       .  S
C706        C709   1.488       .  S
C706        C707   1.403   1_655  A
C707        C708   1.398       .  A
C707        H715   1.083       .  S
C708        H716   1.083       .  S
C709        H717   1.087       .  S
C709        C710   1.345       .  D
C710        H718   1.085       .  S
C711        H719   1.086       .  S
C711        C712   1.348       .  D
C712        H720   1.085       .  S
C721        C729   1.491       .  S
C721        C722   1.401       .  A
C721        C726   1.410       .  A
C722        C723   1.397       .  A
C722        H731   1.084       .  S
C723        C724   1.411       .  A
C723        H732   1.080       .  S
C724        C727   1.498       .  S
C724        C725   1.405       .  A
C725        C726   1.405       .  A
C725        H733   1.084       .  S
C726        H734   1.081       .  S
C727        H735   1.087       .  S
C727        C728   1.345       .  D
C728        H736   1.084       .  S
C729        H737   1.088       .  S
C729        C730   1.344       .  D
C730        H738   1.085       .  S
C739        C747   1.482       .  S
C739        C740   1.402       .  A
C739        C744   1.407       .  A
C740        C741   1.395       .  A
C740        H749   1.084       .  S
C741        C742   1.407       .  A
C741        H750   1.081       .  S
C742        C745   1.482   1_545  S
C742        C743   1.402       .  A
C743        C744   1.397       .  A
C743        H751   1.084       .  S
C744        H752   1.081       .  S
C745        H753   1.088       .  S
C745        C746   1.344       .  D
C746        H754   1.086       .  S
C747        H755   1.087       .  S
C747        C748   1.345       .  D
C748        H756   1.084       .  S
C757        C765   1.488       .  S
C757        C758   1.401       .  A
C757        C762   1.409       .  A
C758        C759   1.397       .  A
C758        H767   1.084       .  S
C759        C760   1.409       .  A
C759        H768   1.081       .  S
C760        C763   1.492       .  S
C760        C761   1.404       .  A
C761        C762   1.402       .  A
C761        H769   1.083       .  S
C762        H770   1.082       .  S
C763        H771   1.087       .  S
C763        C764   1.344       .  D
C764        H772   1.085       .  S
C765        H773   1.087       .  S
C765        C766   1.343       .  D
C766        H774   1.085       .  S
C775        C783   1.481       .  S
C775        C776   1.403       .  A
C775        C780   1.407       .  A
C776        C777   1.396       .  A
C776        H785   1.083       .  S
C777        C778   1.407       .  A
C777        H786   1.081       .  S
C778        C781   1.480       .  S
C778        C779   1.402       .  A
C779        C780   1.395       .  A
C779        H787   1.083       .  S
C780        H788   1.081       .  S
C781        H789   1.087       .  S
C781        C782   1.346       .  D
C782        H790   1.085       .  S
C783        H791   1.087       .  S
C783        C784   1.346       .  D
C784        H792   1.084       .  S
C793        C801   1.487       .  S
C793        C794   1.404       .  A
C793        C798   1.407       .  A
C794        C795   1.397       .  A
C794        H803   1.083       .  S
C795        C796   1.405       .  A
C795        H804   1.082   1_655  S
C796        C799   1.488   1_655  S
C796        C797   1.405       .  A
C797        C798   1.402       .  A
C797        H805   1.083       .  S
C798        H806   1.081       .  S
C799        H807   1.086       .  S
C799        C800   1.350       .  D
C800        H808   1.084       .  S
C801        H809   1.087       .  S
C801        C802   1.349       .  D
C802        H810   1.084       .  S
C811        C819   1.490   1_556  S
C811        C812   1.405       .  A
C811        C816   1.408   1_556  A
C812        C813   1.399       .  A
C812        H821   1.085       .  S
C813        C814   1.408       .  A
C813        H822   1.079       .  S
C814        C817   1.490       .  S
C814        C815   1.405   1_556  A
C815        C816   1.399       .  A
C815        H823   1.085       .  S
C816        H824   1.079       .  S
C817        H825   1.088   1_556  S
C817        C818   1.349       .  D
C818        H826   1.084       .  S
C819        H827   1.088   1_554  S
C819        C820   1.349       .  D
C820        H828   1.085       .  S
C829        C837   1.501       .  S
C829        C830   1.408       .  A
C829        C834   1.409       .  A
C830        C831   1.403       .  A
C830        H839   1.083       .  S
C831        C832   1.408       .  A
C831        H840   1.080       .  S
C832        C835   1.500       .  S
C832        C833   1.407       .  A
C833        C834   1.404       .  A
C833        H841   1.084       .  S
C834        H842   1.080       .  S
C835        H843   1.087       .  S
C835        C836   1.353       .  D
C836        H844   1.084       .  S
C837        H845   1.087       .  S
C837        C838   1.355       .  D
C838        H846   1.083       .  S
C847        C855   1.481       .  S
C847        C848   1.407       .  A
C847        C852   1.403       .  A
C848        C849   1.398       .  A
C848        H857   1.084       .  S
C849        C850   1.404       .  A
C849        H858   1.082       .  S
C850        C853   1.481       .  S
C850        C851   1.406       .  A
C851        C852   1.397       .  A
C851        H859   1.083       .  S
C852        H860   1.081       .  S
C853        H861   1.088       .  S
C853        C854   1.353       .  D
C854        H862   1.084   1_554  S
C855        H863   1.088       .  S
C855        C856   1.353       .  D
C856        H864   1.084       .  S
C865        C873   1.494       .  S
C865        C866   1.404       .  A
C865        C870   1.410       .  A
C866        C867   1.400       .  A
C866        H875   1.083       .  S
C867        C868   1.409       .  A
C867        H876   1.081       .  S
C868        C871   1.493       .  S
C868        C869   1.404       .  A
C869        C870   1.400       .  A
C869        H877   1.083       .  S
C870        H878   1.080       .  S
C871        H879   1.087       .  S
C871        C872   1.347       .  D
C872        H880   1.083       .  S
C873        H881   1.087       .  S
C873        C874   1.348       .  D
C874        H882   1.083       .  S
C883        C891   1.484       .  S
C883        C884   1.404       .  A
C883        C888   1.409       .  A
C884        C885   1.393       .  A
C884        H893   1.084       .  S
C885        C886   1.403       .  A
C885        H894   1.083       .  S
C886        C889   1.480       .  S
C886        C887   1.403       .  A
C887        C888   1.401       .  A
C887        H895   1.083       .  S
C888        H896   1.080       .  S
C889        H897   1.086       .  S
C889        C890   1.347       .  D
C890        H898   1.086       .  S
C891        H899   1.090       .  S
C891        C892   1.345       .  D
C892        H900   1.083       .  S
C901        C909   1.496       .  S
C901        C902   1.407       .  A
C901        C906   1.409       .  A
C902        C903   1.401       .  A
C902        H911   1.084       .  S
C903        C904   1.407       .  A
C903        H912   1.080       .  S
C904        C907   1.491       .  S
C904        C905   1.404       .  A
C905        C906   1.399       .  A
C905        H913   1.084       .  S
C906        H914   1.078       .  S
C907        H915   1.088       .  S
C907        C908   1.348       .  D
C908        H916   1.085       .  S
C909        H917   1.087       .  S
C909        C910   1.351       .  D
C910        H918   1.082       .  S
C919        C927   1.488       .  S
C919        C920   1.404       .  A
C919        C924   1.406       .  A
C920        C921   1.402       .  A
C920        H929   1.084       .  S
C921        C922   1.409       .  A
C921        H930   1.080   1_655  S
C922        C925   1.491   1_655  S
C922        C923   1.405       .  A
C923        C924   1.398       .  A
C923        H931   1.084       .  S
C924        H932   1.082       .  S
C925        H933   1.087   1_455  S
C925        C926   1.349       .  D
C926        H934   1.083       .  S
C927        H935   1.087       .  S
C927        C928   1.348       .  D
C928        H936   1.086       .  S
C937        C945   1.484       .  S
C937        C938   1.402       .  A
C937        C942   1.408       .  A
C938        C939   1.399       .  A
C938        H947   1.083       .  S
C939        C940   1.410       .  A
C939        H948   1.081       .  S
C940        C943   1.485       .  S
C940        C941   1.401       .  A
C941        C942   1.396       .  A
C941        H949   1.083       .  S
C942        H950   1.082       .  S
C943        H951   1.087       .  S
C943        C944   1.343       .  D
C944        H952   1.085       .  S
C945        H953   1.087       .  S
C945        C946   1.343       .  D
C946        H954   1.086       .  S
C955        C963   1.487       .  S
C955        C956   1.403       .  A
C955        C960   1.407       .  A
C956        C957   1.401       .  A
C956        H965   1.084       .  S
C957        C958   1.408       .  A
C957        H966   1.081       .  S
C958        C961   1.488       .  S
C958        C959   1.403       .  A
C959        C960   1.398       .  A
C959        H967   1.084       .  S
C960        H968   1.082       .  S
C961        H969   1.088       .  S
C961        C962   1.345       .  D
C962        H970   1.086   1_554  S
C963        H971   1.087       .  S
C963        C964   1.347       .  D
C964        H972   1.086       .  S
C973        C981   1.492       .  S
C973        C974   1.401       .  A
C973        C978   1.411       .  A
C974        C975   1.400       .  A
C974        H983   1.083       .  S
C975        C976   1.411       .  A
C975        H984   1.082       .  S
C976        C979   1.493       .  S
C976        C977   1.402       .  A
C977        C978   1.401       .  A
C977        H985   1.083       .  S
C978        H986   1.082       .  S
C979        H987   1.087       .  S
C979        C980   1.344       .  D
C980        H988   1.086       .  S
C981        H989   1.086       .  S
C981        C982   1.344       .  D
C982        H990   1.084       .  S
C991        C999   1.484       .  S
C991        C992   1.403       .  A
C991        C996   1.405       .  A
C992        C993   1.402   1_455  A
C992       H1001   1.083       .  S
C993        C994   1.408   1_655  A
C993       H1002   1.082       .  S
C994        C997   1.485   1_455  S
C994        C995   1.403       .  A
C995        C996   1.396       .  A
C995       H1003   1.084       .  S
C996       H1004   1.083       .  S
C997       H1005   1.087       .  S
C997        C998   1.347       .  D
C998       H1006   1.086       .  S
C999       H1007   1.087       .  S
C999       C1000   1.344       .  D
C1000      H1008   1.087       .  S
C1009      C1017   1.498       .  S
C1009      C1010   1.405   1_455  A
C1009      C1014   1.409       .  A
C1010      C1011   1.403   1_556  A
C1010      H1019   1.083       .  S
C1011      C1012   1.411       .  A
C1011      H1020   1.080       .  S
C1012      C1015   1.500       .  S
C1012      C1013   1.405   1_655  A
C1013      C1014   1.402   1_554  A
C1013      H1021   1.083       .  S
C1014      H1022   1.081       .  S
C1015      H1023   1.087       .  S
C1015      C1016   1.348       .  D
C1016      H1024   1.083       .  S
C1017      H1025   1.087   1_455  S
C1017      C1018   1.348       .  D
C1018      H1026   1.084       .  S
C1027      C1035   1.486       .  S
C1027      C1028   1.406       .  A
C1027      C1032   1.405   1_455  A
C1028      C1029   1.398       .  A
C1028      H1037   1.083       .  S
C1029      C1030   1.406   1_455  A
C1029      H1038   1.080       .  S
C1030      C1033   1.486       .  S
C1030      C1031   1.406       .  A
C1031      C1032   1.396       .  A
C1031      H1039   1.083       .  S
C1032      H1040   1.080       .  S
C1033      H1041   1.087       .  S
C1033      C1034   1.351       .  D
C1034      H1042   1.083       .  S
C1035      H1043   1.087       .  S
C1035      C1036   1.350       .  D
C1036      H1044   1.083   1_455  S
C1045      C1053   1.502       .  S
C1045      C1046   1.408   1_556  A
C1045      C1050   1.410       .  A
C1046      C1047   1.406       .  A
C1046      H1055   1.083       .  S
C1047      C1048   1.409   1_554  A
C1047      H1056   1.082       .  S
C1048      C1051   1.497       .  S
C1048      C1049   1.405       .  A
C1049      C1050   1.401       .  A
C1049      H1057   1.083       .  S
C1050      H1058   1.080       .  S
C1051      H1059   1.087       .  S
C1051      C1052   1.351   1_546  D
C1052      H1060   1.084   1_565  S
C1053      H1061   1.087       .  S
C1053      C1054   1.351       .  D
C1054      H1062   1.082       .  S
C1063      C1071   1.481   1_545  S
C1063      C1064   1.406       .  A
C1063      C1068   1.403       .  A
C1064      C1065   1.396       .  A
C1064      H1073   1.081   1_545  S
C1065      C1066   1.408       .  A
C1065      H1074   1.081       .  S
C1066      C1069   1.482       .  S
C1066      C1067   1.401       .  A
C1067      C1068   1.395       .  A
C1067      H1075   1.084       .  S
C1068      H1076   1.084       .  S
C1069      H1077   1.088       .  S
C1069      C1070   1.342       .  D
C1070      H1078   1.085       .  S
C1071      H1079   1.088       .  S
C1071      C1072   1.344       .  D
C1072      H1080   1.085       .  S
C1081      C1089   1.493   1_556  S
C1081      C1082   1.402   1_556  A
C1081      C1086   1.411       .  A
C1082      C1083   1.399       .  A
C1082      H1091   1.084       .  S
C1083      C1084   1.410   1_554  A
C1083      H1092   1.082       .  S
C1084      C1087   1.494       .  S
C1084      C1085   1.403       .  A
C1085      C1086   1.403       .  A
C1085      H1093   1.084       .  S
C1086      H1094   1.081       .  S
C1087      H1095   1.087       .  S
C1087      C1088   1.345       .  D
C1088      H1096   1.087       .  S
C1089      H1097   1.087       .  S
C1089      C1090   1.345       .  D
C1090      H1098   1.085   1_554  S
C1099      C1107   1.491       .  S
C1099      C1100   1.410       .  A
C1099      C1104   1.403       .  A
C1100      C1101   1.402       .  A
C1100      H1109   1.081       .  S
C1101      C1102   1.408       .  A
C1101      H1110   1.082       .  S
C1102      C1105   1.489       .  S
C1102      C1103   1.403       .  A
C1103      C1104   1.397       .  A
C1103      H1111   1.083       .  S
C1104      H1112   1.083       .  S
C1105      H1113   1.087       .  S
C1105      C1106   1.347       .  D
C1106      H1114   1.084       .  S
C1107      H1115   1.087       .  S
C1107      C1108   1.345       .  D
C1108      H1116   1.084       .  S
C1117      C1125   1.498       .  S
C1117      C1118   1.403       .  A
C1117      C1122   1.411       .  A
C1118      C1119   1.401       .  A
C1118      H1127   1.083       .  S
C1119      C1120   1.411       .  A
C1119      H1128   1.081       .  S
C1120      C1123   1.500       .  S
C1120      C1121   1.405       .  A
C1121      C1122   1.404       .  A
C1121      H1129   1.083       .  S
C1122      H1130   1.081       .  S
C1123      H1131   1.086       .  S
C1123      C1124   1.347       .  D
C1124      H1132   1.084       .  S
C1125      H1133   1.087       .  S
C1125      C1126   1.346       .  D
C1126      H1134   1.085       .  S
C1135      C1143   1.482       .  S
C1135      C1136   1.403       .  A
C1135      C1140   1.405       .  A
C1136      C1137   1.401       .  A
C1136      H1145   1.083       .  S
C1137      C1138   1.406       .  A
C1137      H1146   1.083       .  S
C1138      C1141   1.480       .  S
C1138      C1139   1.402       .  A
C1139      C1140   1.396       .  A
C1139      H1147   1.084       .  S
C1140      H1148   1.083       .  S
C1141      H1149   1.088       .  S
C1141      C1142   1.344       .  D
C1142      H1150   1.087       .  S
C1143      H1151   1.086       .  S
C1143      C1144   1.345       .  D
C1144      H1152   1.086       .  S
C1153      C1161   1.502       .  S
C1153      C1154   1.407       .  A
C1153      C1158   1.410       .  A
C1154      C1155   1.404       .  A
C1154      H1163   1.083       .  S
C1155      C1156   1.409       .  A
C1155      H1164   1.082       .  S
C1156      C1159   1.499       .  S
C1156      C1157   1.405       .  A
C1157      C1158   1.403       .  A
C1157      H1165   1.083       .  S
C1158      H1166   1.080       .  S
C1159      H1167   1.086       .  S
C1159      C1160   1.349       .  D
C1160      H1168   1.084       .  S
C1161      H1169   1.086       .  S
C1161      C1162   1.350       .  D
C1162      H1170   1.082       .  S
C1171      C1179   1.481       .  S
C1171      C1172   1.403       .  A
C1171      C1176   1.406       .  A
C1172      C1173   1.396       .  A
C1172      H1181   1.083       .  S
C1173      C1174   1.406       .  A
C1173      H1182   1.081       .  S
C1174      C1177   1.482       .  S
C1174      C1175   1.403       .  A
C1175      C1176   1.396       .  A
C1175      H1183   1.083       .  S
C1176      H1184   1.082       .  S
C1177      H1185   1.087       .  S
C1177      C1178   1.346       .  D
C1178      H1186   1.084       .  S
C1179      H1187   1.086       .  S
C1179      C1180   1.347       .  D
C1180      H1188   1.084       .  S
C1189      C1197   1.483       .  S
C1189      C1190   1.403       .  A
C1189      C1194   1.406       .  A
C1190      C1191   1.398       .  A
C1190      H1199   1.084       .  S
C1191      C1192   1.408       .  A
C1191      H1200   1.080       .  S
C1192      C1195   1.488       .  S
C1192      C1193   1.404       .  A
C1193      C1194   1.398       .  A
C1193      H1201   1.084       .  S
C1194      H1202   1.081       .  S
C1195      H1203   1.088       .  S
C1195      C1196   1.346       .  D
C1196      H1204   1.084       .  S
C1197      H1205   1.088       .  S
C1197      C1198   1.346       .  D
C1198      H1206   1.086       .  S
C1207      C1215   1.482       .  S
C1207      C1208   1.403       .  A
C1207      C1212   1.406       .  A
C1208      C1209   1.397       .  A
C1208      H1217   1.084       .  S
C1209      C1210   1.407       .  A
C1209      H1218   1.081       .  S
C1210      C1213   1.483       .  S
C1210      C1211   1.404       .  A
C1211      C1212   1.397       .  A
C1211      H1219   1.084       .  S
C1212      H1220   1.082       .  S
C1213      H1221   1.087       .  S
C1213      C1214   1.346       .  D
C1214      H1222   1.085       .  S
C1215      H1223   1.088       .  S
C1215      C1216   1.344       .  D
C1216      H1224   1.085       .  S
C1225      C1233   1.494       .  S
C1225      C1226   1.404       .  A
C1225      C1230   1.409       .  A
C1226      C1227   1.398       .  A
C1226      H1235   1.083       .  S
C1227      C1228   1.408       .  A
C1227      H1236   1.081       .  S
C1228      C1231   1.495       .  S
C1228      C1229   1.406       .  A
C1229      C1230   1.404       .  A
C1229      H1237   1.083       .  S
C1230      H1238   1.081       .  S
C1231      H1239   1.087       .  S
C1231      C1232   1.349       .  D
C1232      H1240   1.085       .  S
C1233      H1241   1.087       .  S
C1233      C1234   1.350       .  D
C1234      H1242   1.084       .  S
C1243      C1251   1.485       .  S
C1243      C1244   1.405       .  A
C1243      C1248   1.407       .  A
C1244      C1245   1.395       .  A
C1244      H1253   1.083       .  S
C1245      C1246   1.403       .  A
C1245      H1254   1.083       .  S
C1246      C1249   1.484       .  S
C1246      C1247   1.405       .  A
C1247      C1248   1.403       .  A
C1247      H1255   1.083       .  S
C1248      H1256   1.082       .  S
C1249      H1257   1.087       .  S
C1249      C1250   1.347       .  D
C1250      H1258   1.086       .  S
C1251      H1259   1.088       .  S
C1251      C1252   1.350       .  D
C1252      H1260   1.085       .  S
C1261      C1269   1.492       .  S
C1261      C1262   1.404       .  A
C1261      C1266   1.407       .  A
C1262      C1263   1.402       .  A
C1262      H1271   1.084       .  S
C1263      C1264   1.409       .  A
C1263      H1272   1.080       .  S
C1264      C1267   1.496       .  S
C1264      C1265   1.407       .  A
C1265      C1266   1.403       .  A
C1265      H1273   1.084       .  S
C1266      H1274   1.082       .  S
C1267      H1275   1.088       .  S
C1267      C1268   1.351       .  D
C1268      H1276   1.085       .  S
C1269      H1277   1.087       .  S
C1269      C1270   1.349       .  D
C1270      H1278   1.086       .  S
C1279      C1287   1.477   1_554  S
C1279      C1280   1.402       .  A
C1279      C1284   1.406       .  A
C1280      C1281   1.396       .  A
C1280      H1289   1.084   1_554  S
C1281      C1282   1.406       .  A
C1281      H1290   1.082       .  S
C1282      C1285   1.481       .  S
C1282      C1283   1.402       .  A
C1283      C1284   1.398       .  A
C1283      H1291   1.084       .  S
C1284      H1292   1.082       .  S
C1285      H1293   1.088       .  S
C1285      C1286   1.341       .  D
C1286      H1294   1.086       .  S
C1287      H1295   1.088       .  S
C1287      C1288   1.344   1_556  D
C1288      H1296   1.086       .  S
C1297      C1305   1.502       .  S
C1297      C1298   1.406       .  A
C1297      C1302   1.411       .  A
C1298      C1299   1.404       .  A
C1298      H1307   1.083       .  S
C1299      C1300   1.411       .  A
C1299      H1308   1.081       .  S
C1300      C1303   1.501       .  S
C1300      C1301   1.405       .  A
C1301      C1302   1.404       .  A
C1301      H1309   1.083       .  S
C1302      H1310   1.080       .  S
C1303      H1311   1.086       .  S
C1303      C1304   1.349       .  D
C1304      H1312   1.084       .  S
C1305      H1313   1.086       .  S
C1305      C1306   1.351       .  D
C1306      H1314   1.083       .  S
C1315      C1323   1.487       .  S
C1315      C1316   1.403       .  A
C1315      C1320   1.407       .  A
C1316      C1317   1.403       .  A
C1316      H1325   1.083       .  S
C1317      C1318   1.410       .  A
C1317      H1326   1.082       .  S
C1318      C1321   1.489       .  S
C1318      C1319   1.402       .  A
C1319      C1320   1.397       .  A
C1319      H1327   1.084       .  S
C1320      H1328   1.083       .  S
C1321      H1329   1.088       .  S
C1321      C1322   1.344       .  D
C1322      H1330   1.086       .  S
C1323      H1331   1.087       .  S
C1323      C1324   1.347       .  D
C1324      H1332   1.087       .  S
C1333      C1341   1.485       .  S
C1333      C1334   1.402       .  A
C1333      C1338   1.408       .  A
C1334      C1335   1.398   1_556  A
C1334      H1343   1.083   1_556  S
C1335      C1336   1.409       .  A
C1335      H1344   1.081       .  S
C1336      C1339   1.487       .  S
C1336      C1337   1.403   1_554  A
C1337      C1338   1.397       .  A
C1337      H1345   1.083       .  S
C1338      H1346   1.081       .  S
C1339      H1347   1.087       .  S
C1339      C1340   1.343       .  D
C1340      H1348   1.084       .  S
C1341      H1349   1.087       .  S
C1341      C1342   1.343       .  D
C1342      H1350   1.085       .  S
C1351      C1359   1.471       .  S
C1351      C1352   1.402       .  A
C1351      C1356   1.403       .  A
C1352      C1353   1.394       .  A
C1352      H1361   1.084       .  S
C1353      C1354   1.405       .  A
C1353      H1362   1.082       .  S
C1354      C1357   1.474       .  S
C1354      C1355   1.402       .  A
C1355      C1356   1.393       .  A
C1355      H1363   1.083       .  S
C1356      H1364   1.082       .  S
C1357      H1365   1.087       .  S
C1357      C1358   1.342       .  D
C1358      H1366   1.085       .  S
C1359      H1367   1.087       .  S
C1359      C1360   1.344       .  D
C1360      H1368   1.085       .  S
