geometry optimzed in LAMMPS
_audit_creation_date              2020-12-01 
_audit_creation_method            'lammps2cif' 
_symmetry_space_group_name_H-M    'P1' 
_symmetry_Int_Tables_number       1 
_symmetry_cell_setting            triclinic 
loop_ 
_symmetry_equiv_pos_as_xyz 
  x,y,z 
_cell_length_a                    60.28566097 
_cell_length_b                    60.36021021720635 
_cell_length_c                    44.272551738342585 
_cell_angle_alpha                 89.59972406677848 
_cell_angle_beta                  90.26340547929328 
_cell_angle_gamma                 120.18015892213771 
loop_ 
_atom_site_label 
_atom_site_type_symbol 
_atom_site_fract_x 
_atom_site_fract_y 
_atom_site_fract_z 
_atom_site_charge 
O1          O  0.13111373  0.25360220  0.24040434    -0.85900
O2          O  0.08812331  0.21300944  0.26386724    -0.82900
C3          C  0.07433743  0.19191093  0.27697816     0.97600
O4          O  0.08362257  0.18468858  0.29793823    -0.83000
O5          O  0.12353179  0.17813338  0.27350723    -0.85600
C6          C  0.14572878  0.18415807  0.26413486     1.02100
O7          O  0.16465705  0.20547756  0.27142028    -0.78400
O8          O  0.15382910  0.23474536  0.23378410    -0.78600
C9          C  0.14028797  0.24343761  0.22318091     1.02100
O10         O  0.14517971  0.27497300  0.30127772    -0.85900
O11         O  0.10130646  0.23489872  0.32425087    -0.82900
C12         C  0.10691933  0.22659972  0.34780360     0.97600
O13         O  0.11750499  0.21318881  0.34615574    -0.83000
O14         O  0.15364938  0.20230248  0.32692388    -0.85600
C15         C  0.17449452  0.22283958  0.33230956     1.02100
O16         O  0.18073227  0.24305385  0.31726021    -0.78400
O17         O  0.17642937  0.27629466  0.27551108    -0.78500
C18         C  0.16758930  0.28757725  0.29096607     1.02000
Cr19       Cr  0.11780123  0.24284859  0.28298070     1.93700
Cr20       Cr  0.12050145  0.19672812  0.30934518     1.93200
Cr21       Cr  0.16649454  0.23914924  0.27563724     1.39100
O22         O  0.13478096  0.22632522  0.28944543    -1.23600
O23         O  0.21546740  0.44780911  0.34794383    -0.85900
O24         O  0.20721672  0.47142726  0.29894221    -0.82900
C25         C  0.22220416  0.49485003  0.30466324     0.97600
O26         O  0.24618173  0.50415169  0.30282885    -0.83000
O27         O  0.29326471  0.50573797  0.29941356    -0.85600
C28         C  0.30055842  0.50232817  0.32493041     1.02100
O29         O  0.28734361  0.48117334  0.33856810    -0.78400
O30         O  0.24402634  0.43561242  0.35469067    -0.78600
C31         C  0.22724599  0.44033713  0.36508461     1.02100
O32         O  0.20902439  0.40715372  0.31108630    -0.85900
O33         O  0.20772523  0.43362530  0.26032903    -0.82900
C34         C  0.21446523  0.45132938  0.24101260     0.97600
O35         O  0.23024532  0.47431370  0.24799710    -0.83000
O36         O  0.27463502  0.47230642  0.24877647    -0.85600
C37         C  0.29008250  0.46493638  0.25650007     1.02100
O38         O  0.29118454  0.45871877  0.28355405    -0.78400
O39         O  0.24656776  0.41372487  0.29744755    -0.78500
C40         C  0.22308301  0.39851130  0.30249931     1.02000
Cr41       Cr  0.21251073  0.44142632  0.30411414     1.93700
Cr42       Cr  0.26002507  0.48700457  0.27676750     1.93200
Cr43       Cr  0.26563597  0.44811845  0.31717548     1.39100
O44         O  0.24628347  0.45902498  0.29966461    -1.23600
O45         O  0.54879947  0.44790218  0.17831300    -0.85900
O46         O  0.58149963  0.45723896  0.13087626    -0.82900
C47         C  0.58988486  0.44240007  0.13727369     0.97600
O48         O  0.57465686  0.41847588  0.13769054    -0.83000
O49         O  0.52868225  0.37135065  0.13184717    -0.85600
C50         C  0.51583602  0.36359913  0.15596008     1.02100
O51         O  0.50715960  0.37659195  0.16789602    -0.78400
O52         O  0.50736980  0.42049110  0.18417646    -0.78600
C53         C  0.52948098  0.43531783  0.19516069     1.02100
O54         O  0.51625338  0.45655736  0.14115302    -0.85900
O55         O  0.54429685  0.45726393  0.09047776    -0.82900
C56         C  0.55507945  0.44952371  0.07227178     0.97600
O57         O  0.56269608  0.43470089  0.08175763    -0.83000
O58         O  0.51691092  0.39063488  0.07946528    -0.85600
C59         C  0.49339073  0.37627431  0.08492258     1.02100
O60         O  0.48414170  0.37563958  0.11079153    -0.78400
O61         O  0.48463909  0.42043673  0.12580990    -0.78500
C62         C  0.49350725  0.44373485  0.13211781     1.02000
Cr63       Cr  0.54636458  0.45222748  0.13473279     1.93700
Cr64       Cr  0.54456503  0.40479495  0.10962594     1.93200
Cr65       Cr  0.49829708  0.39987027  0.14582296     1.39100
O66         O  0.52951058  0.41860954  0.13026153    -1.23600
O67         O  0.43637234  0.52788167  0.07362631    -0.85900
O68         O  0.44139641  0.57200093  0.09437054    -0.82900
C69         C  0.43250544  0.58609742  0.10138384     0.97600
O70         O  0.41396308  0.57814426  0.11967273    -0.83000
O71         O  0.36825763  0.53815481  0.09689577    -0.85600
C72         C  0.35090260  0.51586810  0.08992379     1.02100
O73         O  0.35298586  0.49687171  0.09780778    -0.78400
O74         O  0.39488488  0.50659833  0.06367854    -0.78600
C75         C  0.41785192  0.51963870  0.05483359     1.02100
O76         O  0.43881877  0.51340103  0.13685003    -0.85900
O77         O  0.44474854  0.55844912  0.15678948    -0.82900
C78         C  0.42952081  0.55613837  0.17792701     0.97600
O79         O  0.40613586  0.54755073  0.17272497    -0.83000
O80         O  0.36043052  0.51048608  0.15299720    -0.85600
C81         C  0.35966836  0.48984681  0.16079356     1.02100
O82         O  0.37276344  0.48191725  0.14711241    -0.78400
O83         O  0.41090849  0.48363352  0.10794488    -0.78500
C84         C  0.43041064  0.49195920  0.12462726     1.02000
Cr85       Cr  0.43765813  0.54169040  0.11571923     1.93700
Cr86       Cr  0.38855761  0.54247662  0.13406987     1.93200
Cr87       Cr  0.38450825  0.49464523  0.10532815     1.39100
O88         O  0.40382027  0.52658170  0.11842862    -1.23600
O89         O  0.24743329  0.14649780  0.01379772    -0.85900
O90         O  0.20667112  0.10115112  0.49184418    -0.82900
C91         C  0.18511022  0.08690684  0.47990208     0.97600
O92         O  0.17640874  0.09560080  0.45993155    -0.83000
O93         O  0.16765830  0.13393992  0.48246914    -0.85600
C94         C  0.17200988  0.15580529  0.49038017     1.02100
O95         O  0.19403210  0.17518831  0.48682373    -0.78400
O96         O  0.22535267  0.16528815  0.02428214    -0.78600
C97         C  0.23727401  0.15417406  0.03305205     1.02100
O98         O  0.26556600  0.15999700  0.45177678    -0.85900
O99         O  0.22659591  0.11428861  0.43086875    -0.82900
C100        C  0.21647488  0.11825993  0.40787458     0.97600
O101        O  0.20288150  0.12852422  0.41051241    -0.83000
O102        O  0.19147928  0.16418761  0.42899524    -0.85600
C103        C  0.21167132  0.18545053  0.42389671     1.02100
O104        O  0.23146329  0.19290015  0.44013598    -0.78400
O105        O  0.26588001  0.18950357  0.47999637    -0.78500
C106        C  0.27766036  0.18187453  0.46349209     1.02000
Cr107      Cr  0.23500798  0.13153230  0.47155711     1.93700
Cr108      Cr  0.18692139  0.13165304  0.44732447     1.93200
Cr109      Cr  0.22841278  0.17822529  0.48134013     1.39100
O110        O  0.21670030  0.14692682  0.46673897    -1.23600
O111        O  0.43684237  0.22374923  0.40588716    -0.85900
O112        O  0.45792725  0.21403513  0.45592266    -0.82900
C113        C  0.48151136  0.22804899  0.44992312     0.97600
O114        O  0.49163319  0.25212110  0.45080127    -0.83000
O115        O  0.49560133  0.30034374  0.45371913    -0.85600
C116        C  0.49258269  0.30757420  0.42791111     1.02100
O117        O  0.47162372  0.29460200  0.41413302    -0.78400
O118        O  0.42568212  0.25292026  0.39784562    -0.78600
C119        C  0.43056853  0.23608432  0.38808004     1.02100
O120        O  0.39573630  0.21906720  0.44071752    -0.85900
O121        O  0.42021775  0.21655181  0.49267481    -0.82900
C122        C  0.43753592  0.22228082  0.01174210     0.97600
O123        O  0.46085825  0.23665277  0.00449941    -0.83000
O124        O  0.46176119  0.28300093  0.50397770    -0.85600
C125        C  0.45597228  0.29947080  0.49569764     1.02100
O126        O  0.44982908  0.30057440  0.46855709    -0.78400
O127        O  0.40359958  0.25699801  0.45428003    -0.78500
C128        C  0.38777758  0.23386793  0.44845297     1.02000
Cr129      Cr  0.42908186  0.22089418  0.44922941     1.93700
Cr130      Cr  0.47547353  0.26723752  0.47648496     1.93200
Cr131      Cr  0.43829252  0.27464511  0.43518934     1.39100
O132        O  0.44772289  0.25449995  0.45347081    -1.23600
O133        O  0.57367713  0.12830176  0.40021053    -0.85900
O134        O  0.53035568  0.08922314  0.42590544    -0.82900
C135        C  0.52312444  0.09980706  0.44517829     0.97600
O136        O  0.51055532  0.11044630  0.43735264    -0.83000
O137        O  0.49879199  0.14128531  0.40353196    -0.85600
C138        C  0.51833235  0.16284739  0.40855562     1.02100
O139        O  0.53984719  0.16784850  0.39817968    -0.78400
O140        O  0.57751634  0.16000179  0.37177686    -0.78600
C141        C  0.58717748  0.15036467  0.38908443     1.02100
O142        O  0.55609750  0.10844121  0.34086183    -0.85900
O143        O  0.51199227  0.06988847  0.36460089    -0.82900
C144        C  0.49081381  0.05788615  0.37789229     0.97600
O145        O  0.48428922  0.06961843  0.39596253    -0.83000
O146        O  0.47961869  0.10413442  0.35674855    -0.85600
C147        C  0.48648494  0.12422445  0.34119636     1.02100
O148        O  0.50763759  0.14454240  0.34611745    -0.78400
O149        O  0.54295168  0.13406069  0.32327787    -0.78500
C150        C  0.55222221  0.11973403  0.31904654     1.02000
Cr151      Cr  0.54167506  0.10041325  0.38276019     1.93700
Cr152      Cr  0.49567662  0.10715502  0.39698395     1.93200
Cr153      Cr  0.54095495  0.14923206  0.36160507     1.39100
O154        O  0.52644798  0.11906756  0.38045070    -1.23600
O155        O  0.44205407  0.87554518  0.34333402    -0.85900
O156        O  0.43966300  0.91556930  0.31902769    -0.82900
C157        C  0.42167008  0.90459779  0.29983360     0.97600
O158        O  0.39864043  0.89364983  0.30841469    -0.83000
O159        O  0.35729277  0.86265454  0.34352635    -0.85600
C160        C  0.35520655  0.84076324  0.34165204     1.02100
O161        O  0.37210947  0.83669483  0.35293368    -0.78400
O162        O  0.41915824  0.84724247  0.37786553    -0.78600
C163        C  0.43507212  0.85444727  0.35628271     1.02100
O164        O  0.44935860  0.89706941  0.40357797    -0.85900
O165        O  0.44341096  0.93560633  0.37967294    -0.82900
C166        C  0.43359033  0.94733538  0.36701841     0.97600
O167        O  0.41422976  0.93535405  0.35003807    -0.83000
O168        O  0.37470137  0.90119686  0.38914805    -0.85600
C169        C  0.36140190  0.88137271  0.40511140     1.02100
O170        O  0.36377182  0.86177643  0.40242134    -0.78400
O171        O  0.41127244  0.87606895  0.42424625    -0.78500
C172        C  0.43521278  0.88980271  0.42687205     1.02000
Cr173      Cr  0.44099450  0.90454909  0.36181580     1.93700
Cr174      Cr  0.38782400  0.89756647  0.34918220     1.93200
Cr175      Cr  0.39287297  0.85770220  0.38761234     1.39100
O176        O  0.40726122  0.88657824  0.36622979    -1.23600
O177        O  0.20724537  0.13270612  0.21675602    -0.85900
O178        O  0.22624054  0.11905412  0.26504780    -0.82900
C179        C  0.22976705  0.10422735  0.28202691     0.97600
O180        O  0.23586712  0.08862364  0.27107407    -0.83000
O181        O  0.18923784  0.04940396  0.25221253    -0.85600
C182        C  0.16852626  0.03755326  0.23759202     1.02100
O183        O  0.16619042  0.04651903  0.21268028    -0.78400
O184        O  0.17221849  0.09540427  0.21930280    -0.78600
C185        C  0.18332980  0.11946270  0.22152823     1.02100
O186        O  0.24421160  0.13040768  0.17838006    -0.85900
O187        O  0.26750329  0.12359713  0.22936722    -0.82900
C188        C  0.27434905  0.10844763  0.21927555     0.97600
O189        O  0.25758341  0.08579133  0.21296584    -0.83000
O190        O  0.21066441  0.04490018  0.19679566    -0.85600
C191        C  0.20497747  0.04756682  0.16993229     1.02100
O192        O  0.20060467  0.06527752  0.16306798    -0.78400
O193        O  0.20354609  0.11171345  0.16538561    -0.78500
C194        C  0.22704892  0.12613371  0.15903038     1.02000
Cr195      Cr  0.23498222  0.12408438  0.22188691     1.93700
Cr196      Cr  0.22292862  0.06898432  0.23197003     1.93200
Cr197      Cr  0.18765969  0.08054096  0.19216950     1.39100
O198        O  0.21507853  0.09097610  0.21544372    -1.23600
O199        O  0.45418351  0.24952709  0.20338314    -0.85900
O200        O  0.43092439  0.21715705  0.15531139    -0.82900
C201        C  0.42552518  0.19854465  0.13805583     0.97600
O202        O  0.42113002  0.17700796  0.14835552    -0.83000
O203        O  0.46707583  0.18047298  0.16382607    -0.85600
C204        C  0.48859426  0.18929187  0.17676193     1.02100
O205        O  0.49257232  0.20125759  0.20126743    -0.78400
O206        O  0.48770611  0.24523985  0.19638672    -0.78600
C207        C  0.47734153  0.25898978  0.19566823     1.02100
O208        O  0.41888616  0.21009743  0.24314792    -0.85900
O209        O  0.39141958  0.18169460  0.19358792    -0.82900
C210        C  0.38395460  0.15929941  0.20284717     0.97600
O211        O  0.39980405  0.15165510  0.20607698    -0.83000
O212        O  0.44589585  0.15467528  0.21990687    -0.85600
C213        C  0.45354252  0.16298024  0.24632418     1.02100
O214        O  0.46086881  0.18593241  0.25316182    -0.78400
O215        O  0.46011684  0.23080174  0.25300866    -0.78500
C216        C  0.43716174  0.22196595  0.26139371     1.02000
Cr217      Cr  0.42532525  0.21340856  0.19918197     1.93700
Cr218      Cr  0.43416432  0.16840489  0.18587880     1.93200
Cr219      Cr  0.47314628  0.21466714  0.22397976     1.39100
O220        O  0.44431885  0.19865643  0.20276930    -1.23600
O221        O  0.07936130  0.88474041  0.03282401    -0.85900
O222        O  0.11401877  0.89852925  0.48375682    -0.82900
C223        C  0.13374204  0.91220895  0.46785466     0.97600
O224        O  0.15496916  0.92812417  0.48014878    -0.83000
O225        O  0.15048722  0.96929546  0.00027232    -0.85600
C226        C  0.14178254  0.98126007  0.01467939     1.02100
O227        O  0.12851133  0.97136170  0.03823640    -0.78400
O228        O  0.08369189  0.92286970  0.03076988    -0.78600
C229        C  0.06965379  0.89881369  0.02874277     1.02100
O230        O  0.11829824  0.88509886  0.07036541    -0.85900
O231        O  0.14724339  0.89124361  0.01908360    -0.82900
C232        C  0.16899304  0.90409214  0.03114379     0.97600
O233        O  0.17672999  0.92699481  0.03837675    -0.83000
O234        O  0.17431183  0.96983405  0.05589095    -0.85600
C235        C  0.16522594  0.96778341  0.08217011     1.02100
O236        O  0.14240502  0.95104307  0.08803763    -0.78400
O237        O  0.09813921  0.90515613  0.08441225    -0.78500
C238        C  0.10684135  0.89035495  0.09042050     1.02000
Cr239      Cr  0.11550585  0.89250258  0.02717711     1.93700
Cr240      Cr  0.16142664  0.94671283  0.01982337     1.93200
Cr241      Cr  0.11431565  0.93675127  0.05818490     1.39100
O242        O  0.13048918  0.92568550  0.03481243    -1.23600
O243        O  0.20932334  0.75968490  0.05068153    -0.85900
O244        O  0.21930644  0.79323705  0.09799462    -0.82900
C245        C  0.23221057  0.81297693  0.11398883     0.97600
O246        O  0.24760458  0.83477013  0.10220784    -0.83000
O247        O  0.29177867  0.83623488  0.08501931    -0.85600
C248        C  0.30356961  0.82542129  0.07545004     1.02100
O249        O  0.29511115  0.81056028  0.05309907    -0.78400
O250        O  0.24763091  0.76602625  0.05902658    -0.78600
C251        C  0.22369552  0.75108700  0.05855613     1.02100
O252        O  0.21011066  0.79673819  0.00992858    -0.85900
O253        O  0.21086171  0.82530884  0.06027262    -0.82900
C254        C  0.22293380  0.84718200  0.04858295     0.97600
O255        O  0.24624315  0.85613254  0.04219650    -0.83000
O256        O  0.29103844  0.85698147  0.02650787    -0.85600
C257        C  0.29105930  0.84632184  0.00188310     1.02100
O258        O  0.27782817  0.82236112  0.99889842    -0.78400
O259        O  0.23308343  0.77736127  0.50205207    -0.78500
C260        C  0.21814982  0.78505177  0.49277861     1.02000
Cr261      Cr  0.21503506  0.79507727  0.05419181     1.93700
Cr262      Cr  0.26754202  0.84346467  0.06282383     1.93200
Cr263      Cr  0.26226577  0.79552355  0.02995055     1.39100
O264        O  0.24875533  0.81162092  0.04919852    -1.23600
O265        O  0.21323666  0.78475959  0.34649150    -0.85900
O266        O  0.24363249  0.79357469  0.29692444    -0.82900
C267        C  0.25235977  0.77881915  0.30237925     0.97600
O268        O  0.23738427  0.75487123  0.30239264    -0.83000
O269        O  0.19154605  0.70780149  0.29940094    -0.85600
C270        C  0.18096046  0.70056975  0.32496248     1.02100
O271        O  0.17376479  0.71396953  0.33887555    -0.78400
O272        O  0.17244912  0.75703879  0.35519804    -0.78600
C273        C  0.19505135  0.77219216  0.36471833     1.02100
O274        O  0.17764540  0.79123322  0.31132347    -0.85900
O275        O  0.20429350  0.79285518  0.25941801    -0.82900
C276        C  0.21504107  0.78603073  0.24012639     0.97600
O277        O  0.22243063  0.77045628  0.24761879    -0.83000
O278        O  0.17654862  0.72641145  0.24899942    -0.85600
C279        C  0.15380042  0.71083244  0.25663147     1.02100
O280        O  0.14645265  0.70955954  0.28372955    -0.78400
O281        O  0.14622122  0.75393399  0.29812306    -0.78500
C282        C  0.15470306  0.77737394  0.30286433     1.02000
Cr283      Cr  0.20838763  0.78812505  0.30320078     1.93700
Cr284      Cr  0.20599841  0.74087916  0.27661531     1.93200
Cr285      Cr  0.16201877  0.73524013  0.31753463     1.39100
O286        O  0.19198293  0.75449771  0.29928852    -1.23600
O287        O  0.10867537  0.88863019  0.23300811    -0.85900
O288        O  0.12069650  0.92351128  0.27963076    -0.82900
C289        C  0.10602938  0.93254274  0.27514658     0.97600
O290        O  0.08206301  0.91840997  0.27812761    -0.83000
O291        O  0.03431063  0.87402734  0.28778631    -0.85600
C292        C  0.02510680  0.86176293  0.26366563     1.02100
O293        O  0.03702702  0.85314074  0.24906384    -0.78400
O294        O  0.07792024  0.84808506  0.23015213    -0.78600
C295        C  0.09440979  0.86889697  0.21754295     1.02100
O296        O  0.11528016  0.85539905  0.27256599    -0.85900
O297        O  0.12046749  0.88621023  0.32095859    -0.82900
C298        C  0.11451115  0.89763464  0.34018695     0.97600
O299        O  0.10041657  0.90668097  0.33265276    -0.83000
O300        O  0.05538679  0.86138566  0.33728671    -0.85600
C301        C  0.03810082  0.83859189  0.33213112     1.02100
O302        O  0.03547179  0.82939218  0.30585384    -0.78400
O303        O  0.07782892  0.82598626  0.28917690    -0.78500
C304        C  0.10120831  0.83374016  0.28441295     1.02000
Cr305      Cr  0.11373403  0.88738584  0.27710659     1.93700
Cr306      Cr  0.06896079  0.88894647  0.30682236     1.93200
Cr307      Cr  0.05892085  0.84160369  0.26963553     1.39100
O308        O  0.08030018  0.87259546  0.28410449    -1.23600
O309        O  0.89316686  0.45690505  0.18660206    -0.85900
O310        O  0.86685955  0.42382627  0.13988893    -0.82900
C311        C  0.84351880  0.41483870  0.14646528     0.97600
O312        O  0.83442430  0.42965828  0.14767821    -0.83000
O313        O  0.83295460  0.47564435  0.14384848    -0.85600
C314        C  0.83948390  0.48892490  0.16760231     1.02100
O315        O  0.86133475  0.49682169  0.17890143    -0.78400
O316        O  0.90624945  0.49804604  0.19193939    -0.78600
C317        C  0.90036423  0.47633804  0.20320567     1.02100
O318        O  0.93181083  0.48997737  0.14612709    -0.85900
O319        O  0.90183104  0.46093977  0.09737327    -0.82900
C320        C  0.88256833  0.45012041  0.07993092     0.97600
O321        O  0.86041123  0.44231096  0.09049027    -0.83000
O322        O  0.86216435  0.48807208  0.09013583    -0.85600
C323        C  0.87052112  0.51131012  0.09605235     1.02100
O324        O  0.87995523  0.52046988  0.12165136    -0.78400
O325        O  0.92533399  0.52081009  0.13224503    -0.78500
C326        C  0.94048996  0.51243981  0.13620794     1.02000
Cr327      Cr  0.89710673  0.45916825  0.14220564     1.93700
Cr328      Cr  0.84976187  0.46009567  0.11995203     1.93200
Cr329      Cr  0.89234134  0.50652288  0.15488781     1.39100
O330        O  0.87954298  0.47535934  0.13937105    -1.23600
O331        O  0.08297784  0.56368552  0.07498556    -0.85900
O332        O  0.12145340  0.55801332  0.09834851    -0.82900
C333        C  0.14315533  0.56521471  0.10971670     0.97600
O334        O  0.15245376  0.58284821  0.12927607    -0.83000
O335        O  0.16223148  0.63042456  0.10589503    -0.85600
C336        C  0.15795907  0.64772625  0.09650554     1.02100
O337        O  0.13637123  0.64582224  0.10103885    -0.78400
O338        O  0.10477123  0.60498773  0.06456051    -0.78600
C339        C  0.09369037  0.58194311  0.05596170     1.02100
O340        O  0.06391660  0.56047703  0.13635066    -0.85900
O341        O  0.10069477  0.55244983  0.15898196    -0.82900
C342        C  0.11090055  0.56683654  0.18156850     0.97600
O343        O  0.12613046  0.59039943  0.17830629    -0.83000
O344        O  0.13824685  0.63723844  0.15863509    -0.85600
C345        C  0.11790596  0.63788158  0.16391258     1.02100
O346        O  0.09825370  0.62595492  0.14733168    -0.78400
O347        O  0.06351605  0.58888211  0.10652897    -0.78500
C348        C  0.05156916  0.56912339  0.12286891     1.02000
Cr349      Cr  0.09377270  0.56132489  0.11745173     1.93700
Cr350      Cr  0.14250190  0.60902396  0.14115932     1.93200
Cr351      Cr  0.10152376  0.61485582  0.10616338     1.39100
O352        O  0.11279489  0.59494294  0.12142362    -1.23600
O353        O  0.78138583  0.56782774  0.40766640    -0.85900
O354        O  0.74949229  0.54671669  0.45675396    -0.82900
C355        C  0.73977570  0.52349516  0.44949120     0.97600
O356        O  0.75362591  0.51324891  0.44975480    -0.83000
O357        O  0.79728979  0.50800071  0.45467180    -0.85600
C358        C  0.80948114  0.51179516  0.43034282     1.02100
O359        O  0.81904289  0.53338506  0.41739497    -0.78400
O360        O  0.82168621  0.57848675  0.39981310    -0.78600
C361        C  0.79975717  0.57321503  0.38979227     1.02100
O362        O  0.81713751  0.60868100  0.44308779    -0.85900
O363        O  0.78952821  0.58318241  0.49489309    -0.82900
C364        C  0.77468923  0.56386636  0.01301521     0.97600
O365        O  0.76540624  0.54092770  0.00430050    -0.83000
O366        O  0.81304205  0.54020010  0.50583814    -0.85600
C367        C  0.83606102  0.54761406  0.49923638     1.02100
O368        O  0.84479322  0.55572655  0.47298624    -0.78400
O369        O  0.84751338  0.60153162  0.45715747    -0.78500
C370        C  0.83990931  0.61714758  0.45163437     1.02000
Cr371      Cr  0.78566973  0.57521539  0.45102693     1.93700
Cr372      Cr  0.78444952  0.52802840  0.47690097     1.93200
Cr373      Cr  0.83085390  0.56661842  0.43824315     1.39100
O374        O  0.80058723  0.55652454  0.45526467    -1.23600
O375        O  0.88394581  0.77167793  0.01539022    -0.85900
O376        O  0.87250095  0.79671553  0.46515396    -0.82900
C377        C  0.88627889  0.82007387  0.47178529     0.97600
O378        O  0.91036703  0.83052317  0.47073828    -0.83000
O379        O  0.95892302  0.83592862  0.46868906    -0.85600
C380        C  0.96583546  0.83180710  0.49418454     1.02100
O381        O  0.95318233  0.80999605  0.50627911    -0.78400
O382        O  0.91324553  0.76040191  0.02095408    -0.78600
C383        C  0.89790254  0.76669713  0.03218464     1.02100
O384        O  0.87901889  0.73483168  0.47671809    -0.85900
O385        O  0.87560034  0.76083634  0.42671841    -0.82900
C386        C  0.88219441  0.77850629  0.40737074     0.97600
O387        O  0.89734290  0.80173358  0.41435919    -0.83000
O388        O  0.94399176  0.80449386  0.41595795    -0.85600
C389        C  0.96079389  0.79910451  0.42406189     1.02100
O390        O  0.96094249  0.79113984  0.45057264    -0.78400
O391        O  0.91727631  0.74370768  0.46246299    -0.78500
C392        C  0.89381912  0.72758781  0.46643341     1.02000
Cr393      Cr  0.88026770  0.76834655  0.47047893     1.93700
Cr394      Cr  0.92658658  0.81597743  0.44429046     1.93200
Cr395      Cr  0.93421893  0.77758985  0.48343729     1.39100
O396        O  0.91391837  0.78732001  0.46588666    -1.23600
O397        O  0.90372376  0.79322310  0.23990429    -0.85900
O398        O  0.85843113  0.75665436  0.26385081    -0.82900
C399        C  0.85135012  0.76812539  0.28215337     0.97600
O400        O  0.84123320  0.78068731  0.27227260    -0.83000
O401        O  0.83225499  0.81185928  0.23373967    -0.85600
C402        C  0.85220893  0.83336082  0.23724519     1.02100
O403        O  0.87377114  0.83624790  0.23061972    -0.78400
O404        O  0.91073006  0.82540499  0.21043243    -0.78600
C405        C  0.91845011  0.81550177  0.23005215     1.02100
O406        O  0.88810697  0.77220144  0.17985450    -0.85900
O407        O  0.84167637  0.73650243  0.20254856    -0.82900
C408        C  0.82036319  0.72589489  0.21568783     0.97600
O409        O  0.81449378  0.73897661  0.23234545    -0.83000
O410        O  0.81332239  0.77311958  0.18956804    -0.85600
C411        C  0.82196373  0.79237674  0.17207699     1.02100
O412        O  0.84370736  0.81217589  0.17660782    -0.78400
O413        O  0.87896895  0.79999153  0.15974652    -0.78500
C414        C  0.88668949  0.78429365  0.15712063     1.02000
Cr415      Cr  0.87187607  0.76623485  0.22108156     1.93700
Cr416      Cr  0.82779360  0.77684372  0.23081125     1.93200
Cr417      Cr  0.87553723  0.81610126  0.19620336     1.39100
O418        O  0.85872005  0.78649738  0.21592119    -1.23600
O419        O  0.77882426  0.54839543  0.18378105    -0.85900
O420        O  0.77292474  0.58602945  0.15732397    -0.82900
C421        C  0.75516613  0.57388730  0.13821555     0.97600
O422        O  0.73201445  0.56171906  0.14609513    -0.83000
O423        O  0.69094110  0.52882978  0.17965879    -0.85600
C424        C  0.69081231  0.50781875  0.17790951     1.02100
O425        O  0.70851275  0.50541304  0.18985401    -0.78400
O426        O  0.75524603  0.51914348  0.21735972    -0.78600
C427        C  0.77283780  0.52795149  0.19774946     1.02100
O428        O  0.78227301  0.56919591  0.24272604    -0.85900
O429        O  0.77341493  0.60547239  0.21766052    -0.82900
C430        C  0.76301724  0.61603888  0.20370549     0.97600
O431        O  0.74417299  0.60297669  0.18643374    -0.83000
O432        O  0.70552002  0.56762400  0.22493648    -0.85600
C433        C  0.69267750  0.54754569  0.24049801     1.02100
O434        O  0.69626125  0.52868258  0.23809577    -0.78400
O435        O  0.74376217  0.54586631  0.26208435    -0.78500
C436        C  0.76753652  0.56053521  0.26538009     1.02000
Cr437      Cr  0.77419846  0.57578883  0.20059205     1.93700
Cr438      Cr  0.71980728  0.56478490  0.18577720     1.93200
Cr439      Cr  0.72709266  0.52698264  0.22509135     1.39100
O440        O  0.74048071  0.55577665  0.20373792    -1.23600
O441        O  0.54226932  0.42026630  0.38294164    -0.85900
O442        O  0.55021885  0.45399898  0.42895705    -0.82900
C443        C  0.56282955  0.47357778  0.44527638     0.97600
O444        O  0.57789457  0.49548730  0.43403136    -0.83000
O445        O  0.62248105  0.49556319  0.42028116    -0.85600
C446        C  0.63551812  0.48643386  0.40948168     1.02100
O447        O  0.62820734  0.47346441  0.38556363    -0.78400
O448        O  0.58114040  0.42784401  0.39182029    -0.78600
C449        C  0.55720508  0.41249744  0.39150909     1.02100
O450        O  0.54324736  0.45672238  0.34015530    -0.85900
O451        O  0.54235194  0.48572370  0.38878271    -0.82900
C452        C  0.55576032  0.50830321  0.37906302     0.97600
O453        O  0.57939526  0.51732395  0.37481628    -0.83000
O454        O  0.62415337  0.51795604  0.36195598    -0.85600
C455        C  0.62334904  0.50839656  0.33634603     1.02100
O456        O  0.60985370  0.48460097  0.33206198    -0.78400
O457        O  0.56617111  0.43832982  0.33407052    -0.78500
C458        C  0.55182290  0.44597109  0.32308528     1.02000
Cr459      Cr  0.54704234  0.45553450  0.38488647     1.93700
Cr460      Cr  0.59941620  0.50398372  0.39656928     1.93200
Cr461      Cr  0.59531247  0.45726135  0.36265456     1.39100
O462        O  0.58090330  0.47249989  0.38161666    -1.23600
O463        O  0.41176603  0.55002302  0.37453912    -0.85900
O464        O  0.44053632  0.55909753  0.32273540    -0.82900
C465        C  0.45875441  0.57084423  0.30417508     0.97600
O466        O  0.48165867  0.58514549  0.31328367    -0.83000
O467        O  0.48393910  0.62989021  0.33152914    -0.85600
C468        C  0.47716585  0.64341273  0.34610160     1.02100
O469        O  0.46640448  0.63586120  0.37154108    -0.78400
O470        O  0.41938155  0.58918527  0.36930210    -0.78600
C471        C  0.40378511  0.56529421  0.36886863     1.02100
O472        O  0.45114638  0.54866325  0.40916615    -0.85900
O473        O  0.47549130  0.54972341  0.35488398    -0.82900
C474        C  0.49841487  0.56191054  0.36354800     0.97600
O475        O  0.50833126  0.58551102  0.36896857    -0.83000
O476        O  0.51143840  0.63128065  0.38511032    -0.85600
C477        C  0.50480793  0.63082640  0.41232941     1.02100
O478        O  0.48192775  0.61641767  0.42064907    -0.78400
O479        O  0.43545364  0.57288895  0.42291032    -0.78500
C480        C  0.44154728  0.55609728  0.42933329     1.02000
Cr481      Cr  0.44623496  0.55447348  0.36571646     1.93700
Cr482      Cr  0.49398558  0.60636380  0.35124469     1.93200
Cr483      Cr  0.45162079  0.60250540  0.39400951     1.39100
O484        O  0.46415788  0.58811071  0.37023800    -1.23600
O485        O  0.52929746  0.77984301  0.06875649    -0.85900
O486        O  0.56900627  0.77673149  0.09428150    -0.82900
C487        C  0.55925596  0.75800178  0.11276922     0.97600
O488        O  0.54892204  0.73532989  0.10296155    -0.83000
O489        O  0.51995496  0.69484891  0.06424310    -0.85600
C490        C  0.49743457  0.69122066  0.06565719     1.02100
O491        O  0.49290395  0.70860726  0.05738257    -0.78400
O492        O  0.50146947  0.75580787  0.03435045    -0.78600
C493        C  0.50856106  0.77249892  0.05479359     1.02100
O494        O  0.55346511  0.78922699  0.00978065    -0.85900
O495        O  0.59145597  0.78369519  0.03465950    -0.82900
C496        C  0.60373054  0.77453959  0.04736488     0.97600
O497        O  0.59173341  0.75399595  0.06242987    -0.83000
O498        O  0.55961206  0.71657292  0.02038164    -0.85600
C499        C  0.54067739  0.70422569  0.00286136     1.02100
O500        O  0.52004094  0.70461615  0.00630621    -0.78400
O501        O  0.53512218  0.75304567  0.48625367    -0.78500
C502        C  0.54819682  0.77710390  0.48563275     1.02000
Cr503      Cr  0.55937777  0.77961010  0.05142136     1.93700
Cr504      Cr  0.55419723  0.72683040  0.06125115     1.93200
Cr505      Cr  0.51368886  0.73145706  0.02347799     1.39100
O506        O  0.54236732  0.74608463  0.04534827    -1.23600
O507        O  0.78916082  0.91733028  0.03892454    -0.85900
O508        O  0.76908965  0.88853392  0.48851912    -0.82900
C509        C  0.76206887  0.86921559  0.47183124     0.97600
O510        O  0.75352993  0.84705245  0.48326309    -0.83000
O511        O  0.79668901  0.84606138  0.99884329    -0.85600
C512        C  0.81794089  0.85375503  0.01192588     1.02100
O513        O  0.82221976  0.86499771  0.03714176    -0.78400
O514        O  0.82170385  0.91126556  0.03421603    -0.78600
C515        C  0.81275605  0.92621220  0.03381833     1.02100
O516        O  0.75059965  0.87908340  0.07668377    -0.85900
O517        O  0.72457871  0.85187348  0.02551628    -0.82900
C518        C  0.71518647  0.82942598  0.03584824     0.97600
O519        O  0.72990795  0.82064178  0.04098255    -0.83000
O520        O  0.77475308  0.82008786  0.05424047    -0.85600
C521        C  0.78204493  0.82775034  0.08092658     1.02100
O522        O  0.78932499  0.85046545  0.08845781    -0.78400
O523        O  0.79129831  0.89643242  0.08903330    -0.78500
C524        C  0.76835349  0.88971665  0.09599256     1.02000
Cr525      Cr  0.75901443  0.88234296  0.03305533     1.93700
Cr526      Cr  0.76407522  0.83527991  0.02064369     1.93200
Cr527      Cr  0.80405547  0.87975437  0.06020836     1.39100
O528        O  0.77589175  0.86568090  0.03783351    -1.23600
O529        O  0.87348642  0.09307240  0.21411034    -0.85900
O530        O  0.88446856  0.12286162  0.26431733    -0.82900
C531        C  0.89880354  0.14025041  0.28253988     0.97600
O532        O  0.91399794  0.16294636  0.27327950    -0.83000
O533        O  0.95621801  0.16067829  0.25574036    -0.85600
C534        C  0.96831602  0.15166604  0.24235937     1.02100
O535        O  0.95991918  0.13999565  0.21763325    -0.78400
O536        O  0.91045138  0.09606660  0.22170926    -0.78600
C537        C  0.88620970  0.08284997  0.22281168     1.02100
O538        O  0.87670437  0.13321622  0.17743348    -0.85900
O539        O  0.87942631  0.16009980  0.23056572    -0.82900
C540        C  0.89408328  0.18274570  0.22178164     0.97600
O541        O  0.91722270  0.19006797  0.21626768    -0.83000
O542        O  0.96006737  0.18773147  0.20070254    -0.85600
C543        C  0.95930927  0.17979772  0.17408610     1.02100
O544        O  0.94369819  0.15690056  0.16680708    -0.78400
O545        O  0.89736637  0.11295421  0.16588026    -0.78500
C546        C  0.88214315  0.12088208  0.15868364     1.02000
Cr547      Cr  0.88107254  0.12864970  0.22126458     1.93700
Cr548      Cr  0.93512728  0.17306212  0.23504824     1.93200
Cr549      Cr  0.92689214  0.12753479  0.19499044     1.39100
O550        O  0.91472665  0.14338167  0.21705761    -1.23600
O551        O  0.75602632  0.22284750  0.17790089    -0.85900
O552        O  0.80034001  0.22896706  0.15548704    -0.82900
C553        C  0.80588502  0.24736689  0.13729636     0.97600
O554        O  0.81726879  0.27008690  0.14675355    -0.83000
O555        O  0.82449594  0.30952431  0.18275238    -0.85600
C556        C  0.80409915  0.31057152  0.18028973     1.02100
O557        O  0.78302362  0.29239446  0.19004441    -0.78400
O558        O  0.74748373  0.24298910  0.21263866    -0.78600
C559        C  0.74006665  0.22655919  0.19163781     1.02100
O560        O  0.76922627  0.21495449  0.23870746    -0.85900
O561        O  0.81550781  0.22493469  0.21714443    -0.82900
C562        C  0.83783077  0.23646852  0.20657866     0.97600
O563        O  0.84452576  0.25565020  0.18936309    -0.83000
O564        O  0.84576905  0.29228596  0.22888715    -0.85600
C565        C  0.83753670  0.30371345  0.24519594     1.02100
O566        O  0.81537828  0.30070766  0.24111015    -0.78400
O567        O  0.78387442  0.25219453  0.26069179    -0.78500
C568        C  0.77475610  0.22835272  0.26245545     1.02000
Cr569      Cr  0.78636537  0.22550282  0.19774286     1.93700
Cr570      Cr  0.83079402  0.28017273  0.18807291     1.93200
Cr571      Cr  0.78347970  0.27097740  0.22428925     1.39100
O572        O  0.80010461  0.25887258  0.20333266    -1.23600
O573        O  0.11271401  0.21455064  0.01708218    -0.85900
O574        O  0.10613572  0.25292792  0.49111687    -0.82900
C575        C  0.08817505  0.24016485  0.47243965     0.97600
O576        O  0.06536383  0.22733466  0.48175787    -0.83000
O577        O  0.02381502  0.19426460  0.02018572    -0.85600
C578        C  0.02305353  0.17301122  0.01986552     1.02100
O579        O  0.04161808  0.17110011  0.02978684    -0.78400
O580        O  0.09031158  0.18533886  0.05124706    -0.78600
C581        C  0.10626403  0.19342444  0.02969405     1.02100
O582        O  0.11958712  0.23861290  0.07540746    -0.85900
O583        O  0.10781174  0.27265508  0.04958688    -0.82900
C584        C  0.09598666  0.28212238  0.03630274     0.97600
O585        O  0.07746835  0.26822060  0.01904167    -0.83000
O586        O  0.04161628  0.23537233  0.06150530    -0.85600
C587        C  0.03124790  0.21712751  0.08032386     1.02100
O588        O  0.03465543  0.19806448  0.07905769    -0.78400
O589        O  0.08277658  0.21379160  0.09797527    -0.78500
C590        C  0.10650669  0.22911582  0.09919457     1.02000
Cr591      Cr  0.10856295  0.24249716  0.03353184     1.93700
Cr592      Cr  0.05344884  0.23004165  0.02192387     1.93200
Cr593      Cr  0.06338183  0.19430480  0.06249458     1.39100
O594        O  0.07523274  0.22219675  0.03948643    -1.23600
O595        O  0.23612318  0.45843261  0.04874158    -0.85900
O596        O  0.20460604  0.43891110  0.09768772    -0.82900
C597        C  0.18664179  0.43542547  0.11517664     0.97600
O598        O  0.16518107  0.43159336  0.10497683    -0.83000
O599        O  0.16903703  0.47647518  0.08460502    -0.85600
C600        C  0.17884662  0.49736710  0.07017049     1.02100
O601        O  0.19141282  0.50013778  0.04637027    -0.78400
O602        O  0.23441423  0.49350248  0.05342936    -0.78600
C603        C  0.24714717  0.48207250  0.05443513     1.02100
O604        O  0.19598437  0.42243988  0.01064926    -0.85900
O605        O  0.16788801  0.39836147  0.06290457    -0.82900
C606        C  0.14552069  0.39097728  0.05385133     0.97600
O607        O  0.13885947  0.40717705  0.04777749    -0.83000
O608        O  0.14325547  0.45249567  0.02913244    -0.85600
C609        C  0.15219336  0.45894344  0.00263682     1.02100
O610        O  0.17537275  0.46619119  0.99712742    -0.78400
O611        O  0.22055334  0.46511198  0.49892929    -0.78500
C612        C  0.21105852  0.44179720  0.49194671     1.02000
Cr613      Cr  0.19999650  0.43102325  0.05444222     1.93700
Cr614      Cr  0.15647710  0.44247046  0.06539728     1.93200
Cr615      Cr  0.20369841  0.47873755  0.02619659     1.39100
O616        O  0.18658586  0.45096964  0.04904222    -1.23600
O617        O  0.87179534  0.45985443  0.38470665    -0.85900
O618        O  0.88971119  0.44650983  0.43471968    -0.82900
C619        C  0.89447916  0.43290805  0.45239325     0.97600
O620        O  0.90067531  0.41704328  0.44235084    -0.83000
O621        O  0.85573709  0.37568375  0.42317971    -0.85600
C622        C  0.83477032  0.36402364  0.40913003     1.02100
O623        O  0.83177524  0.37302886  0.38453406    -0.78400
O624        O  0.83747635  0.42227834  0.38947663    -0.78600
C625        C  0.84811365  0.44642946  0.39024572     1.02100
O626        O  0.90979754  0.45681275  0.34906886    -0.85900
O627        O  0.93210688  0.45213480  0.40224556    -0.82900
C628        C  0.94028518  0.43803392  0.39253242     0.97600
O629        O  0.92450131  0.41528503  0.38532891    -0.83000
O630        O  0.87901221  0.37273644  0.36801308    -0.85600
C631        C  0.87234109  0.37457453  0.34131588     1.02100
O632        O  0.86583688  0.39087531  0.33476482    -0.78400
O633        O  0.86921329  0.43731332  0.33531717    -0.78500
C634        C  0.89285136  0.45146872  0.32908524     1.02000
Cr635      Cr  0.89948994  0.45132187  0.39214434     1.93700
Cr636      Cr  0.88942552  0.39691982  0.40335550     1.93200
Cr637      Cr  0.85298403  0.40672002  0.36310932     1.39100
O638        O  0.88043513  0.41794301  0.38632209    -1.23600
O639        O  0.11879523  0.58071047  0.34797682    -0.85900
O640        O  0.07895938  0.53753351  0.32412588    -0.82900
C641        C  0.09034469  0.53121063  0.30491568     0.97600
O642        O  0.10136103  0.51912724  0.31288766    -0.83000
O643        O  0.13448290  0.51033198  0.34476604    -0.85600
C644        C  0.15587695  0.53081140  0.34177065     1.02100
O645        O  0.15944889  0.55144219  0.35332034    -0.78400
O646        O  0.14812021  0.58626790  0.38121485    -0.78600
C647        C  0.13991234  0.59500256  0.36070213     1.02100
O648        O  0.09922038  0.56475647  0.40901418    -0.85900
O649        O  0.06104282  0.51995480  0.38580831    -0.82900
C650        C  0.04971952  0.49782404  0.37482149     0.97600
O651        O  0.06133478  0.49148807  0.35616521    -0.83000
O652        O  0.09715070  0.48793742  0.39231256    -0.85600
C653        C  0.11761781  0.49484847  0.40680419     1.02100
O654        O  0.13693548  0.51700843  0.40319089    -0.78400
O655        O  0.12198147  0.54873869  0.42750700    -0.78500
C656        C  0.10808119  0.55851251  0.43156435     1.02000
Cr657      Cr  0.09088125  0.54954264  0.36693503     1.93700
Cr658      Cr  0.09918270  0.50445871  0.35285163     1.93200
Cr659      Cr  0.13935018  0.54984948  0.38963465     1.39100
O660        O  0.10982630  0.53473974  0.36975859    -1.23600
O661        O  0.76609606  0.89332677  0.23703370    -0.85900
O662        O  0.79117753  0.88262614  0.28127441    -0.82900
C663        C  0.81420270  0.89806806  0.27385702     0.97600
O664        O  0.82377562  0.92187699  0.27779072    -0.83000
O665        O  0.82663256  0.96933055  0.28875423    -0.85600
C666        C  0.82145809  0.97753479  0.26496263     1.02100
O667        O  0.80045568  0.96391682  0.25174366    -0.78400
O668        O  0.75524681  0.92317489  0.23393394    -0.78600
C669        C  0.76022615  0.90723093  0.22154965     1.02100
O670        O  0.72672067  0.88549207  0.27711622    -0.85900
O671        O  0.75478488  0.88152204  0.32487646    -0.82900
C672        C  0.77332038  0.88801884  0.34287133     0.97600
O673        O  0.79599174  0.90249827  0.33343316    -0.83000
O674        O  0.79489100  0.94695948  0.34025149    -0.85600
C675        C  0.78725413  0.96270757  0.33584834     1.02100
O676        O  0.77980226  0.96521436  0.30983913    -0.78400
O677        O  0.73428500  0.92256168  0.29377796    -0.78500
C678        C  0.71866766  0.89962401  0.28723502     1.02000
Cr679      Cr  0.76103419  0.88820881  0.28081365     1.93700
Cr680      Cr  0.80818722  0.93418601  0.30819005     1.93200
Cr681      Cr  0.76819079  0.94205411  0.27346604     1.39100
O682        O  0.77917964  0.92169557  0.28727854    -1.23600
O683        O  0.57575012  0.80854194  0.34518271    -0.85900
O684        O  0.53826614  0.76425685  0.32121121    -0.82900
C685        C  0.51700510  0.74938051  0.30918889     0.97600
O686        O  0.50835817  0.75737419  0.28819554    -0.83000
O687        O  0.49712129  0.79498444  0.30893510    -0.85600
C688        C  0.50037091  0.81659784  0.31645986     1.02100
O689        O  0.52227647  0.83641970  0.31387038    -0.78400
O690        O  0.55254969  0.82678461  0.35238056    -0.78600
C691        C  0.56324336  0.81494394  0.36270887     1.02100
O692        O  0.59679873  0.82452355  0.28395055    -0.85900
O693        O  0.56023238  0.77860159  0.26110797    -0.82900
C694        C  0.55109306  0.78281488  0.23729971     0.97600
O695        O  0.53626757  0.79175609  0.23883659    -0.83000
O696        O  0.52302580  0.82593013  0.25674737    -0.85600
C697        C  0.54317973  0.84737300  0.25219312     1.02100
O698        O  0.56213196  0.85569064  0.26999279    -0.78400
O699        O  0.59547185  0.85299347  0.31244263    -0.78500
C700        C  0.60803905  0.84631437  0.29577108     1.02000
Cr701      Cr  0.56633696  0.79521116  0.30234404     1.93700
Cr702      Cr  0.51835983  0.79355822  0.27513687     1.93200
Cr703      Cr  0.55745686  0.84059053  0.31106207     1.39100
O704        O  0.54726454  0.80955915  0.29617279    -1.23600
O705        O  0.55073583  0.10542223  0.17750788    -0.85900
O706        O  0.53908403  0.12564665  0.12836536    -0.82900
C707        C  0.55254526  0.14888066  0.13571831     0.97600
O708        O  0.57671315  0.15914124  0.13617275    -0.83000
O709        O  0.62607273  0.16483678  0.13215467    -0.85600
C710        C  0.63417077  0.15981686  0.15613561     1.02100
O711        O  0.62181122  0.13807092  0.16841561    -0.78400
O712        O  0.57940294  0.09329502  0.18475545    -0.78600
C713        C  0.56436377  0.10052972  0.19495651     1.02100
O714        O  0.54519788  0.06396739  0.14256572    -0.85900
O715        O  0.54282827  0.08932121  0.09060431    -0.82900
C716        C  0.54965914  0.10733403  0.07160604     0.97600
O717        O  0.56354840  0.13041587  0.08011144    -0.83000
O718        O  0.60990990  0.13357594  0.07983328    -0.85600
C719        C  0.62472347  0.12503949  0.08568029     1.02100
O720        O  0.62568402  0.11705082  0.11195721    -0.78400
O721        O  0.58231119  0.07168752  0.12628846    -0.78500
C722        C  0.55934579  0.05588436  0.13260585     1.02000
Cr723      Cr  0.54694638  0.09736121  0.13435887     1.93700
Cr724      Cr  0.59310992  0.14496746  0.10899344     1.93200
Cr725      Cr  0.60064480  0.10570534  0.14653451     1.39100
O726        O  0.58063967  0.11618747  0.13002239    -1.23600
O727        O  0.46425251  0.91402860  0.06836691    -0.85900
O728        O  0.42167188  0.87461284  0.09373558    -0.82900
C729        C  0.40716283  0.85509939  0.10907889     0.97600
O730        O  0.41635424  0.84719966  0.12946428    -0.83000
O731        O  0.45151534  0.83527512  0.10260831    -0.85600
C732        C  0.47222730  0.83875590  0.09121387     1.02100
O733        O  0.49251719  0.86051037  0.09265612    -0.78400
O734        O  0.48344358  0.89234728  0.05798932    -0.78600
C735        C  0.47156724  0.90338698  0.04926863     1.02100
O736        O  0.48153459  0.93397412  0.12894329    -0.85900
O737        O  0.43743122  0.89639009  0.15367608    -0.82900
C738        C  0.44451956  0.88911207  0.17694151     0.97600
O739        O  0.45479222  0.87554107  0.17414545    -0.83000
O740        O  0.48645043  0.86004264  0.15116943    -0.85600
C741        C  0.50853333  0.87963969  0.15397674     1.02100
O742        O  0.51502850  0.89950378  0.13833871    -0.78400
O743        O  0.51059694  0.93391228  0.10005943    -0.78500
C744        C  0.50353684  0.94568293  0.11760965     1.02000
Cr745      Cr  0.45244475  0.90340473  0.11142480     1.93700
Cr746      Cr  0.45321947  0.85661549  0.13746856     1.93200
Cr747      Cr  0.49813101  0.89590191  0.09860685     1.39100
O748        O  0.46781912  0.88523984  0.11570783    -1.23600
O749        O  0.86510867  0.11604192  0.01362020    -0.85900
O750        O  0.90872538  0.11694510  0.49180354    -0.82900
C751        C  0.92245923  0.10983470  0.47854003     0.97600
O752        O  0.91333373  0.09376932  0.45744236    -0.83000
O753        O  0.87677160  0.04824489  0.48531047    -0.85600
C754        C  0.85562701  0.03201187  0.49699089     1.02100
O755        O  0.83576541  0.03379544  0.49287402    -0.78400
O756        O  0.84266308  0.07514035  0.02485267    -0.78600
C757        C  0.85496497  0.09831631  0.03314373     1.02100
O758        O  0.85134091  0.12012331  0.45284312    -0.85900
O759        O  0.89524389  0.12359596  0.43053585    -0.82900
C760        C  0.88850717  0.10904437  0.40772750     0.97600
O761        O  0.87721019  0.08504326  0.41106316    -0.83000
O762        O  0.84378133  0.03789178  0.43455099    -0.85600
C763        C  0.82256387  0.03655053  0.42916164     1.02100
O764        O  0.81585854  0.05019003  0.44369816    -0.78400
O765        O  0.82042793  0.09032120  0.47999144    -0.78500
C766        C  0.82945358  0.11074537  0.46456759     1.02000
Cr767      Cr  0.87914666  0.11664818  0.47183621     1.93700
Cr768      Cr  0.87674208  0.06754820  0.44878144     1.93200
Cr769      Cr  0.83151344  0.06405350  0.48413570     1.39100
O770        O  0.86246846  0.08285652  0.46828342    -1.23600
O771        O  0.77706886  0.20217992  0.40676975    -0.85900
O772        O  0.77890787  0.24445714  0.43047574    -0.82900
C773        C  0.77100083  0.25790245  0.44273217     0.97600
O774        O  0.75409828  0.24851980  0.46310855    -0.83000
O775        O  0.70788953  0.21033598  0.43721870    -0.85600
C776        C  0.69113155  0.18875836  0.42707101     1.02100
O777        O  0.69391697  0.16948248  0.43053974    -0.78400
O778        O  0.73603171  0.18087170  0.39609620    -0.78600
C779        C  0.75907890  0.19410849  0.38746732     1.02100
O780        O  0.78127185  0.18605555  0.46754234    -0.85900
O781        O  0.78538613  0.22933775  0.49119245    -0.82900
C782        C  0.77049595  0.22401642  0.01371068     0.97600
O783        O  0.74653469  0.21336622  0.01097685    -0.83000
O784        O  0.69995704  0.17828329  0.98927087    -0.85600
C785        C  0.69899437  0.15733432  0.49363073     1.02100
O786        O  0.71229421  0.15066770  0.47815718    -0.78400
O787        O  0.75193365  0.15603824  0.43959143    -0.78500
C788        C  0.77182930  0.16428449  0.45574360     1.02000
Cr789      Cr  0.77787579  0.21417693  0.44936539     1.93700
Cr790      Cr  0.72861525  0.21174897  0.47321437     1.93200
Cr791      Cr  0.72517648  0.16666147  0.43746590     1.39100
O792        O  0.74401747  0.19761764  0.45347336    -1.23600
C793        C  0.78803538  0.11036415  0.45856726    -0.20800
C794        C  0.81483548  0.12450763  0.46191665    -0.07400
C795        C  0.82701384  0.15147137  0.46497186     0.13500
C796        C  0.81227497  0.16351974  0.46353778    -0.20900
C797        C  0.78557729  0.14957614  0.45897422    -0.07400
C798        C  0.77326163  0.12249417  0.45686097     0.13500
C799        C  0.74456036  0.10612536  0.45370062    -0.24200
H800        H  0.77861337  0.08967007  0.45702724     0.14700
H801        H  0.82187128  0.18419525  0.46550231     0.14800
C802        C  0.85544415  0.16772979  0.47086968    -0.24200
H803        H  0.73815796  0.08536307  0.45446817     0.05000
H804        H  0.73826474  0.11002934  0.43171468     0.08200
H805        H  0.73498865  0.11020066  0.47246350     0.08200
H806        H  0.86643119  0.16713136  0.45118345     0.08200
H807        H  0.86068100  0.16062049  0.49130399     0.08200
H808        H  0.86132187  0.18812341  0.47472194     0.05000
C809        C  0.65399588  0.12882151  0.00861722    -0.20800
C810        C  0.68001636  0.14004730  0.01627675    -0.07400
C811        C  0.68710057  0.14213204  0.04699983     0.13500
C812        C  0.66815833  0.13474137  0.06941986    -0.20900
C813        C  0.64246981  0.12626457  0.06171101    -0.07400
C814        C  0.63510508  0.12205449  0.03087427     0.13500
C815        C  0.60754897  0.11117766  0.02108449    -0.24200
H816        H  0.64871345  0.12759982  0.98497648     0.14700
H817        H  0.67382240  0.13770204  0.09298840     0.14800
C818        C  0.71485286  0.15386306  0.05608789    -0.24200
H819        H  0.60515857  0.10727538  0.99644653     0.05000
H820        H  0.60093370  0.12494038  0.02580003     0.08200
H821        H  0.59513754  0.09283763  0.03315383     0.08200
H822        H  0.72585923  0.17398683  0.04804127     0.08200
H823        H  0.72308670  0.14278030  0.04602372     0.08200
H824        H  0.71711983  0.15389214  0.08100307     0.05000
C825        C  0.53988163  0.98908137  0.10320392    -0.20800
C826        C  0.52027766  0.97362239  0.12377812    -0.07400
C827        C  0.51617622  0.98549222  0.14908063     0.13500
C828        C  0.53023365  0.01221645  0.15167964    -0.20900
C829        C  0.54850744  0.02775356  0.13009213    -0.07400
C830        C  0.55412613  0.01599313  0.10610580     0.13500
C831        C  0.57431719  0.03165587  0.08292604    -0.24200
H832        H  0.54347620  0.98019037  0.08411498     0.14700
H833        H  0.52647906  0.02119250  0.17058015     0.14800
C834        C  0.49711616  0.97045925  0.17373621    -0.24200
H835        H  0.57558144  0.01941039  0.06519476     0.05000
H836        H  0.59337053  0.04238092  0.09403513     0.08200
H837        H  0.56976744  0.04539471  0.07172675     0.08200
H838        H  0.50087889  0.95546894  0.18281748     0.08200
H839        H  0.47721103  0.96158909  0.16494509     0.08200
H840        H  0.49847525  0.98285836  0.19291105     0.05000
C841        C  0.53428212  0.89265529  0.20124668    -0.20800
C842        C  0.52649905  0.87776558  0.17491622    -0.07400
C843        C  0.53067702  0.85688347  0.17234576     0.13500
C844        C  0.53806446  0.84856203  0.19785665    -0.20900
C845        C  0.54338888  0.86173005  0.22518850    -0.07400
C846        C  0.54297366  0.88489425  0.22659753     0.13500
C847        C  0.54974783  0.90022466  0.25526443    -0.24200
H848        H  0.53161434  0.90906274  0.20283039     0.14700
H849        H  0.53762820  0.83043853  0.19714544     0.14800
C850        C  0.52642354  0.84272318  0.14301150    -0.24200
H851        H  0.54784948  0.91750900  0.25255881     0.05000
H852        H  0.56991568  0.90657549  0.26153672     0.08200
H853        H  0.53694585  0.88843223  0.27392046     0.08200
H854        H  0.53849951  0.85637112  0.12507304     0.08200
H855        H  0.50607659  0.83345534  0.13617294     0.08200
H856        H  0.53160047  0.82750902  0.14487501     0.05000
C857        C  0.79783993  0.00595980  0.35344850    -0.20800
C858        C  0.78961515  0.98023647  0.36069816    -0.07400
C859        C  0.78698481  0.97284717  0.39154478     0.13500
C860        C  0.79512153  0.99170135  0.41398567    -0.20900
C861        C  0.80588088  0.01769067  0.40647755    -0.07400
C862        C  0.80638883  0.02483242  0.37597465     0.13500
C863        C  0.81762646  0.05254660  0.36702859    -0.24200
H864        H  0.79963898  0.01172577  0.32993294     0.14700
H865        H  0.79493781  0.98636747  0.43746969     0.14800
C866        C  0.77640837  0.94533599  0.40109840    -0.24200
H867        H  0.81642443  0.05483826  0.34226133     0.05000
H868        H  0.83813476  0.06354107  0.37361844     0.08200
H869        H  0.80703632  0.06072212  0.37850175     0.08200
H870        H  0.78996623  0.93887383  0.39476155     0.08200
H871        H  0.75750581  0.93300283  0.39018304     0.08200
H872        H  0.77370233  0.94287806  0.42595135     0.05000
C873        C  0.67574224  0.87553763  0.26419086    -0.20800
C874        C  0.69061272  0.88912653  0.28915284    -0.07400
C875        C  0.67829730  0.89108107  0.31522539     0.13500
C876        C  0.65124904  0.87791175  0.31632453    -0.20900
C877        C  0.63629529  0.86298867  0.29188442    -0.07400
C878        C  0.64888022  0.86283958  0.26499384     0.13500
C879        C  0.63427859  0.85025948  0.23658929    -0.24200
H880        H  0.68529738  0.87476723  0.24385534     0.14700
H881        H  0.64177308  0.87840514  0.33684060     0.14800
C882        C  0.69354968  0.90592983  0.34235355    -0.24200
H883        H  0.64729405  0.85392119  0.21715158     0.05000
H884        H  0.62180225  0.85829989  0.23080235     0.08200
H885        H  0.62259084  0.82919021  0.23958032     0.08200
H886        H  0.70596666  0.92643432  0.33619970     0.08200
H887        H  0.70570582  0.89812210  0.35055882     0.08200
H888        H  0.68089278  0.90479659  0.36117042     0.05000
C889        C  0.98382827  0.46744990  0.41200585    -0.20800
C890        C  0.96848645  0.44903735  0.39047854    -0.07400
C891        C  0.98050978  0.44407737  0.36624521     0.13500
C892        C  0.00718147  0.45976433  0.36224426    -0.20900
C893        C  0.02226994  0.47980063  0.38236982    -0.07400
C894        C  0.01050251  0.48257889  0.40864202     0.13500
C895        C  0.02566338  0.50117493  0.43348827    -0.24200
H896        H  0.97472365  0.47052819  0.43131846     0.14700
H897        H  0.01612547  0.45683479  0.34268505     0.14800
C898        C  0.96536127  0.42288677  0.34409569    -0.24200
H899        H  0.01348105  0.49879113  0.45338943     0.05000
H900        H  0.03378092  0.52121304  0.42543683     0.08200
H901        H  0.04133072  0.49787917  0.44122774     0.08200
H902        H  0.95034432  0.42564919  0.33329538     0.08200
H903        H  0.95613787  0.40414687  0.35608015     0.08200
H904        H  0.97772483  0.42224358  0.32600519     0.05000
C905        C  0.80037133  0.31973683  0.39712354    -0.20800
C906        C  0.81463785  0.33798794  0.41942904    -0.07400
C907        C  0.81139047  0.32993233  0.45008379     0.13500
C908        C  0.79538076  0.30378326  0.45720200    -0.20900
C909        C  0.78316359  0.28539896  0.43450382    -0.07400
C910        C  0.78505843  0.29356718  0.40419402     0.13500
C911        C  0.77102250  0.27471477  0.37922063    -0.24200
H912        H  0.80246753  0.32569078  0.37365714     0.14700
H913        H  0.79361573  0.29744169  0.48049297     0.14800
C914        C  0.82476017  0.34860408  0.47542455    -0.24200
H915        H  0.77384733  0.28446110  0.35702093     0.05000
H916        H  0.75013872  0.26396459  0.38415541     0.08200
H917        H  0.77809506  0.26102633  0.37717402     0.08200
H918        H  0.82040233  0.36440460  0.47409112     0.08200
H919        H  0.84579468  0.35657154  0.47413231     0.08200
H920        H  0.81839367  0.33924634  0.49790004     0.05000
C921        C  0.14796183  0.46230299  0.44691732    -0.20800
C922        C  0.13809376  0.46042114  0.47617709    -0.07400
C923        C  0.11629314  0.46327158  0.47994729     0.13500
C924        C  0.10730840  0.47116886  0.45511651    -0.20900
C925        C  0.12027789  0.47727592  0.42748194    -0.07400
C926        C  0.13972226  0.47125972  0.42269362     0.13500
C927        C  0.15261702  0.47538122  0.39239534    -0.24200
H928        H  0.16373001  0.45881003  0.44338915     0.14700
H929        H  0.09156140  0.47472271  0.45799775     0.14800
C930        C  0.10335943  0.45971079  0.51007892    -0.24200
H931        H  0.16692026  0.46892177  0.39243301     0.05000
H932        H  0.16287858  0.49601258  0.38643271     0.08200
H933        H  0.13801924  0.46445821  0.37481505     0.08200
H934        H  0.11692880  0.47381097  0.52658375     0.08200
H935        H  0.09479965  0.43910233  0.01975642     0.08200
H936        H  0.08656367  0.46255597  0.50842929     0.05000
C937        C  0.11212731  0.31985432  0.06974559    -0.20800
C938        C  0.10447688  0.30967104  0.04068648    -0.07400
C939        C  0.10684156  0.32631796  0.01657929     0.13500
C940        C  0.11853227  0.35288946  0.02187860    -0.20900
C941        C  0.12780399  0.36308384  0.05062735    -0.07400
C942        C  0.12360747  0.34623325  0.07504989     0.13500
C943        C  0.13131179  0.35605000  0.10681075    -0.24200
H944        H  0.10955619  0.30711257  0.08837978     0.14700
H945        H  0.12594444  0.36695541  0.50333178     0.14800
C946        C  0.10323227  0.31747842  0.48569150    -0.24200
H947        H  0.12565965  0.34017444  0.12334154     0.05000
H948        H  0.12182894  0.36700110  0.11339706     0.08200
H949        H  0.15238272  0.36866195  0.10829444     0.08200
H950        H  0.08221280  0.30423749  0.48413286     0.08200
H951        H  0.11345087  0.30719481  0.47931132     0.08200
H952        H  0.10843010  0.33319269  0.46905651     0.05000
C953        C  0.95666531  0.12015919  0.51626807    -0.20800
C954        C  0.94983442  0.12187702  0.48641075    -0.07400
C955        C  0.96907114  0.13745360  0.46537705     0.13500
C956        C  0.99436642  0.15298161  0.47550245    -0.20900
C957        C  0.00085956  0.15263887  0.50584886    -0.07400
C958        C  0.98214601  0.13508619  0.52614231     0.13500
C959        C  0.98871210  0.13306515  0.55854793    -0.24200
H960        H  0.94184386  0.10784326  0.53214427     0.14700
H961        H  0.00910996  0.15779296  0.96309136     0.14800
C962        C  0.96269181  0.13911050  0.43277810    -0.24200
H963        H  0.97180288  0.11821684  0.57116199     0.05000
H964        H  0.99129050  0.15836339  0.07217393     0.08200
H965        H  0.00389749  0.12780015  0.55931878     0.08200
H966        H  0.95054207  0.13624293  0.92892092     0.08200
H967        H  0.95433991  0.11995457  0.42214354     0.08200
H968        H  0.97999660  0.15260906  0.41965230     0.05000
C969        C  0.67622781  0.16755376  0.17289073    -0.20800
C970        C  0.66029474  0.17785594  0.16762168    -0.07400
C971        C  0.67036855  0.20449216  0.17133495     0.13500
C972        C  0.69627186  0.22012103  0.18023936    -0.20900
C973        C  0.71244191  0.20977581  0.18424337    -0.07400
C974        C  0.70208084  0.18301828  0.18059814     0.13500
C975        C  0.71798751  0.17030286  0.18498971    -0.24200
H976        H  0.66858995  0.14717829  0.16970714     0.14700
H977        H  0.70411965  0.24053762  0.18314229     0.14800
C978        C  0.65381221  0.21630498  0.16639269    -0.24200
H979        H  0.70618084  0.14910012  0.18345770     0.05000
H980        H  0.72714106  0.17501501  0.20760999     0.08200
H981        H  0.73291011  0.17671770  0.16721291     0.08200
H982        H  0.63682683  0.20695250  0.18148044     0.08200
H983        H  0.64731000  0.21382382  0.14253516     0.08200
H984        H  0.66441000  0.23715540  0.17131538     0.05000
C985        C  0.85322580  0.31339358  0.29780963    -0.20800
C986        C  0.85381232  0.32218889  0.26828001    -0.07400
C987        C  0.86489415  0.34866534  0.26270108     0.13500
C988        C  0.87326744  0.36561651  0.28708004    -0.20900
C989        C  0.87036952  0.35674635  0.31707553    -0.07400
C990        C  0.86141177  0.33037155  0.32242329     0.13500
C991        C  0.85855920  0.31962015  0.35389717    -0.24200
H992        H  0.84450865  0.29295910  0.30183672     0.14700
H993        H  0.88036340  0.38575438  0.28271468     0.14800
C994        C  0.86646311  0.35891505  0.23113837    -0.24200
H995        H  0.85077947  0.29858615  0.35372918     0.05000
H996        H  0.84518437  0.32330884  0.36714067     0.08200
H997        H  0.87757109  0.32864875  0.36521035     0.08200
H998        H  0.84689350  0.35130441  0.22170051     0.08200
H999        H  0.87750886  0.35304318  0.21651602     0.08200
H1000       H  0.87613860  0.38017418  0.23072166     0.05000
C1001       C  0.80054120  0.22348545  0.08925800    -0.20800
C1002       C  0.79816449  0.24232947  0.10501063    -0.07400
C1003       C  0.78680387  0.25512009  0.09019523     0.13500
C1004       C  0.77872279  0.24919120  0.06011038    -0.20900
C1005       C  0.78155139  0.23080184  0.04431601    -0.07400
C1006       C  0.79239864  0.21762195  0.05899340     0.13500
C1007       C  0.79453861  0.19682090  0.04304627    -0.24200
H1008       H  0.80868597  0.21327514  0.10068942     0.14700
H1009       H  0.76974714  0.25871469  0.04888376     0.14800
C1010       C  0.78192768  0.27418011  0.10629767    -0.24200
H1011       H  0.80292821  0.18802248  0.05791754     0.05000
H1012       H  0.80704623  0.20493561  0.02291063     0.08200
H1013       H  0.77521196  0.18149302  0.03578891     0.08200
H1014       H  0.80042689  0.29111907  0.11257373     0.08200
H1015       H  0.77024697  0.26526245  0.12687463     0.08200
H1016       H  0.77144697  0.28101850  0.09184355     0.05000
C1017       C  0.79153732  0.22838825  0.31349016    -0.20800
C1018       C  0.77111672  0.21664296  0.29296144    -0.07400
C1019       C  0.74763156  0.19571648  0.30278911     0.13500
C1020       C  0.74469220  0.18812864  0.33338621    -0.20900
C1021       C  0.76478219  0.20066476  0.35454743    -0.07400
C1022       C  0.78893932  0.22058983  0.34389243     0.13500
C1023       C  0.81211145  0.23440552  0.36412404    -0.24200
H1024       H  0.80968232  0.24418769  0.30566408     0.14700
H1025       H  0.72626553  0.17264570  0.34092144     0.14800
C1026       C  0.72530396  0.18211136  0.28143771    -0.24200
H1027       H  0.82918876  0.24906005  0.35157282     0.05000
H1028       H  0.81715248  0.22051988  0.37390843     0.08200
H1029       H  0.80823701  0.24446319  0.38240748     0.08200
H1030       H  0.73046596  0.17309032  0.26311243     0.08200
H1031       H  0.72026590  0.19596134  0.27150737     0.08200
H1032       H  0.70804706  0.16676848  0.29304435     0.05000
C1033       C  0.86549176  0.01501086  0.25369867    -0.20800
C1034       C  0.83863530  0.00416453  0.25391729    -0.07400
C1035       C  0.82814601  0.01952286  0.24491817     0.13500
C1036       C  0.84440407  0.04453657  0.23484013    -0.20900
C1037       C  0.87127050  0.05554370  0.23365899    -0.07400
C1038       C  0.88197319  0.04050044  0.24359861     0.13500
C1039       C  0.91049935  0.05098851  0.24369627    -0.24200
H1040       H  0.87357481  0.00343794  0.26123301     0.14700
H1041       H  0.83566458  0.05568943  0.22807778     0.14800
C1042       C  0.79977402  0.01029544  0.24710324    -0.24200
H1043       H  0.91543008  0.03659824  0.25204620     0.05000
H1044       H  0.92003398  0.06791602  0.25870172     0.08200
H1045       H  0.91812453  0.05657049  0.22040193     0.08200
H1046       H  0.79301034  0.00390358  0.27052681     0.08200
H1047       H  0.78878903  0.99437520  0.23109154     0.08200
H1048       H  0.79538773  0.02563326  0.24136777     0.05000
C1049       C  0.86733110  0.19951870  0.24235425    -0.20800
C1050       C  0.88353857  0.20028269  0.21922061    -0.07400
C1051       C  0.88701751  0.21557984  0.19336872     0.13500
C1052       C  0.87290969  0.22836704  0.19051307    -0.20900
C1053       C  0.85530095  0.22613869  0.21281627    -0.07400
C1054       C  0.85340514  0.21236758  0.23973007     0.13500
C1055       C  0.83698841  0.21120993  0.26605291    -0.24200
H1056       H  0.86509209  0.18821461  0.26246009     0.14700
H1057       H  0.87472091  0.23911431  0.17005608     0.14800
C1058       C  0.90441549  0.21728054  0.16804326    -0.24200
H1059       H  0.83989766  0.20178977  0.28610488     0.05000
H1060       H  0.81634481  0.19994782  0.26008164     0.08200
H1061       H  0.84204248  0.23091314  0.27270335     0.08200
H1062       H  0.89803163  0.19784454  0.15906315     0.08200
H1063       H  0.92442000  0.22585137  0.17645607     0.08200
H1064       H  0.90432374  0.22942255  0.14913151     0.05000
C1065       C  0.89695733  0.14939488  0.33705856    -0.20800
C1066       C  0.89810895  0.13356622  0.31483465    -0.07400
C1067       C  0.89887707  0.11139776  0.32371014     0.13500
C1068       C  0.89695356  0.10483547  0.35428491    -0.20900
C1069       C  0.89412712  0.11964258  0.37654333    -0.07400
C1070       C  0.89473963  0.14262782  0.36787912     0.13500
C1071       C  0.89191465  0.15950516  0.39058400    -0.24200
H1072       H  0.89686750  0.16662013  0.33017646     0.14700
H1073       H  0.89710809  0.08756333  0.36080177     0.14800
C1074       C  0.90197021  0.09456324  0.30115113    -0.24200
H1075       H  0.89211576  0.17621935  0.37963768     0.05000
H1076       H  0.90803198  0.16700910  0.40697815     0.08200
H1077       H  0.87338477  0.14838534  0.40264788     0.08200
H1078       H  0.91920570  0.10626167  0.28699245     0.08200
H1079       H  0.88461541  0.08490879  0.28678002     0.08200
H1080       H  0.90430625  0.07931888  0.31231106     0.05000
C1081       C  0.87447065  0.13448798  0.10857206    -0.20800
C1082       C  0.87057167  0.11459360  0.12825726    -0.07400
C1083       C  0.85867469  0.08923604  0.11736380     0.13500
C1084       C  0.85229979  0.08461146  0.08669923    -0.20900
C1085       C  0.85832254  0.10465958  0.06608666    -0.07400
C1086       C  0.86878389  0.12998939  0.07753453     0.13500
C1087       C  0.87443627  0.15256068  0.05755704    -0.24200
H1088       H  0.88347676  0.15386731  0.11717954     0.14700
H1089       H  0.84358312  0.06524097  0.07865711     0.14800
C1090       C  0.85279356  0.06686843  0.13792191    -0.24200
H1091       H  0.88097945  0.17034506  0.07082519     0.05000
H1092       H  0.85681362  0.14870792  0.04514021     0.08200
H1093       H  0.88998772  0.15633611  0.04140629     0.08200
H1094       H  0.84084864  0.06646350  0.15716905     0.08200
H1095       H  0.87080139  0.06843453  0.14663883     0.08200
H1096       H  0.84210591  0.04826988  0.12595704     0.05000
C1097       C  0.02217123  0.22029215  0.13354926    -0.20800
C1098       C  0.01363791  0.21640028  0.10355603    -0.07400
C1099       C  0.98720646  0.20518127  0.09731770     0.13500
C1100       C  0.96963819  0.19523981  0.12125896    -0.20900
C1101       C  0.97805703  0.19676618  0.15120914    -0.07400
C1102       C  0.00467326  0.21093610  0.15759955     0.13500
C1103       C  0.01482767  0.21446247  0.18941614    -0.24200
H1104       H  0.04255307  0.22894505  0.13806810     0.14700
H1105       H  0.94922823  0.18490157  0.11645109     0.14800
C1106       C  0.97751448  0.20238815  0.06533932    -0.24200
H1107       H  0.03613786  0.22522805  0.19006271     0.05000
H1108       H  0.00814500  0.19554032  0.20015945     0.08200
H1109       H  0.00794519  0.22535327  0.20269625     0.08200
H1110       H  0.98309792  0.19046999  0.05204831     0.08200
H1111       H  0.98585807  0.22161156  0.05461474     0.08200
H1112       H  0.95627522  0.19318582  0.06450976     0.05000
C1113       C  0.82017688  0.96949892  0.04336022    -0.20800
C1114       C  0.82878816  0.95445719  0.02920854    -0.07400
C1115       C  0.85001557  0.96662120  0.00936899     0.13500
C1116       C  0.85897242  0.99229504  0.00040047    -0.20900
C1117       C  0.84778602  0.00614668  0.01181415    -0.07400
C1118       C  0.82949978  0.99507358  0.03524708     0.13500
C1119       C  0.81987337  0.01012726  0.05222203    -0.24200
H1120       H  0.80515062  0.96083491  0.06023277     0.14700
H1121       H  0.87586343  0.00264497  0.48119482     0.14800
C1122       C  0.86293880  0.95273380  0.99731310    -0.24200
H1123       H  0.80736437  0.99902305  0.07147666     0.05000
H1124       H  0.81716286  0.02108201  0.54343845     0.08200
H1125       H  0.83657576  0.02749636  0.06151036     0.08200
H1126       H  0.84938541  0.93692076  0.48246324     0.08200
H1127       H  0.87085144  0.94681351  0.01639296     0.08200
H1128       H  0.87965190  0.96584340  0.47794940     0.05000
C1129       C  0.79061825  0.89388732  0.39463319    -0.20800
C1130       C  0.76948964  0.88024039  0.37533698    -0.07400
C1131       C  0.74578855  0.86138405  0.38808987     0.13500
C1132       C  0.74389372  0.85757016  0.41968282    -0.20900
C1133       C  0.76471675  0.87272412  0.43873598    -0.07400
C1134       C  0.78839977  0.89082808  0.42592978     0.13500
C1135       C  0.81158813  0.90710577  0.44515662    -0.24200
H1136       H  0.80895738  0.90817136  0.38538968     0.14700
H1137       H  0.72587829  0.84329292  0.42965019     0.14800
C1138       C  0.72251490  0.84516824  0.36888784    -0.24200
H1139       H  0.82892590  0.91919470  0.43130157     0.05000
H1140       H  0.81577104  0.89473034  0.45996044     0.08200
H1141       H  0.80800504  0.92015138  0.45917744     0.08200
H1142       H  0.72717999  0.83483048  0.35169413     0.08200
H1143       H  0.71602661  0.85740314  0.35759873     0.08200
H1144       H  0.70622032  0.83065000  0.38259981     0.05000
C1145       C  0.74063144  0.88239879  0.17488663    -0.20800
C1146       C  0.75980819  0.90491427  0.18843280    -0.07400
C1147       C  0.78033624  0.92328295  0.17077965     0.13500
C1148       C  0.78184719  0.91821926  0.14027245    -0.20900
C1149       C  0.76319656  0.89533814  0.12680564    -0.07400
C1150       C  0.74182728  0.87753573  0.14406457     0.13500
C1151       C  0.72089507  0.85297715  0.13055551    -0.24200
H1152       H  0.72502897  0.86830300  0.18868785     0.14700
H1153       H  0.79810181  0.93196898  0.12698105     0.14800
C1154       C  0.80129730  0.94774242  0.18435437    -0.24200
H1155       H  0.70630797  0.84083015  0.14764687     0.05000
H1156       H  0.72913802  0.84174755  0.12100164     0.08200
H1157       H  0.71096092  0.85740310  0.11236239     0.08200
H1158       H  0.81081503  0.94325462  0.20299644     0.08200
H1159       H  0.79295193  0.95914141  0.19312739     0.08200
H1160       H  0.81619342  0.95972056  0.16746930     0.05000
C1161       C  0.47856485  0.77962895  0.08632701    -0.20800
C1162       C  0.49396610  0.78568319  0.06048504    -0.07400
C1163       C  0.49785431  0.80652417  0.04205760     0.13500
C1164       C  0.48816868  0.82219016  0.05124986    -0.20900
C1165       C  0.47440677  0.81739591  0.07825874    -0.07400
C1166       C  0.46835580  0.79507687  0.09523346     0.13500
C1167       C  0.45245953  0.78832085  0.12358146    -0.24200
H1168       H  0.47542434  0.76343655  0.10020073     0.14700
H1169       H  0.49269977  0.83922845  0.03821411     0.14800
C1170       C  0.51355615  0.81322078  0.01358114    -0.24200
H1171       H  0.45001066  0.77052718  0.13427930     0.05000
H1172       H  0.43311675  0.78517389  0.11799950     0.08200
H1173       H  0.46170478  0.80399660  0.14030825     0.08200
H1174       H  0.50489571  0.79664692  0.99800038     0.08200
H1175       H  0.53347920  0.81819724  0.01916635     0.08200
H1176       H  0.51440678  0.82988362  0.00165489     0.05000
C1177       C  0.67365625  0.82793878  0.04271611    -0.20800
C1178       C  0.68679940  0.81421988  0.04095883    -0.07400
C1179       C  0.67234495  0.78708771  0.04291584     0.13500
C1180       C  0.64533303  0.77464471  0.04520089    -0.20900
C1181       C  0.63229529  0.78850798  0.04555544    -0.07400
C1182       C  0.64687651  0.81563967  0.04508422     0.13500
C1183       C  0.63461965  0.83203366  0.04814122    -0.24200
H1184       H  0.68446013  0.84870364  0.04216882     0.14700
H1185       H  0.63426994  0.75389787  0.04617521     0.14800
C1186       C  0.68499817  0.77103022  0.04202130    -0.24200
H1187       H  0.64915873  0.85273242  0.04975451     0.05000
H1188       H  0.62276636  0.82658032  0.06895528     0.08200
H1189       H  0.62253529  0.82971588  0.02813229     0.08200
H1190       H  0.69820023  0.77574919  0.06156655     0.08200
H1191       H  0.69584666  0.77466020  0.02061581     0.08200
H1192       H  0.67072830  0.75022118  0.04325959     0.05000
C1193       C  0.56985229  0.78918778  0.15449961    -0.20800
C1194       C  0.55988278  0.76349832  0.14594462    -0.07400
C1195       C  0.55012107  0.74442304  0.16908294     0.13500
C1196       C  0.54881138  0.75145632  0.19915179    -0.20900
C1197       C  0.55713492  0.77696832  0.20688401    -0.07400
C1198       C  0.56871370  0.79613216  0.18432165     0.13500
C1199       C  0.58071292  0.82430899  0.19066740    -0.24200
H1200       H  0.57824211  0.80428725  0.13762170     0.14700
H1201       H  0.54029314  0.73680151  0.21652652     0.14800
C1202       C  0.54092288  0.71666128  0.16262439    -0.24200
H1203       H  0.57229672  0.83283435  0.17550406     0.05000
H1204       H  0.60150042  0.83384643  0.18547219     0.08200
H1205       H  0.57840782  0.82843283  0.21442427     0.08200
H1206       H  0.55663955  0.71482384  0.15221507     0.08200
H1207       H  0.52414090  0.70877387  0.14725520     0.08200
H1208       H  0.53488039  0.70480632  0.18354008     0.05000
C1209       C  0.53429806  0.79143730  0.44091719    -0.20800
C1210       C  0.55396243  0.78996462  0.45587430    -0.07400
C1211       C  0.57729027  0.79768284  0.44069511     0.13500
C1212       C  0.58016754  0.80624680  0.41047913    -0.20900
C1213       C  0.56042290  0.80785909  0.39537798    -0.07400
C1214       C  0.53731055  0.80072356  0.41121998     0.13500
C1215       C  0.51511074  0.80166972  0.39679425    -0.24200
H1216       H  0.51613852  0.78462630  0.45232182     0.14700
H1217       H  0.59784045  0.81158122  0.39857753     0.14800
C1218       C  0.59885471  0.79633494  0.45621832    -0.24200
H1219       H  0.49821203  0.79399161  0.41201682     0.05000
H1220       H  0.50904430  0.79003995  0.37587663     0.08200
H1221       H  0.52077663  0.82182357  0.39143576     0.08200
H1222       H  0.59225758  0.77640669  0.46371961     0.08200
H1223       H  0.60522413  0.80902762  0.47624346     0.08200
H1224       H  0.61560684  0.80255353  0.44104945     0.05000
C1225       C  0.53634350  0.67544644  0.42564152    -0.20800
C1226       C  0.52305997  0.64952394  0.43422614    -0.07400
C1227       C  0.52360261  0.64285377  0.46479485     0.13500
C1228       C  0.53433333  0.66231887  0.48656429    -0.20900
C1229       C  0.54429118  0.68809087  0.47837096    -0.07400
C1230       C  0.54667975  0.69485011  0.44746886     0.13500
C1231       C  0.55863237  0.72240923  0.43761103    -0.24200
H1232       H  0.53633574  0.68055178  0.40210882     0.14700
H1233       H  0.53167174  0.65676712  0.01121188     0.14800
C1234       C  0.51233256  0.61527762  0.47458303    -0.24200
H1235       H  0.55926060  0.72435313  0.41261139     0.05000
H1236       H  0.57858873  0.73331018  0.44628019     0.08200
H1237       H  0.54737768  0.73085476  0.44642240     0.08200
H1238       H  0.52144641  0.60626285  0.46166659     0.08200
H1239       H  0.49131986  0.60441335  0.47069440     0.08200
H1240       H  0.51567220  0.61370358  0.49899870     0.05000
C1241       C  0.49205986  0.68895217  0.35747830    -0.20800
C1242       C  0.48424891  0.66974194  0.33545725    -0.07400
C1243       C  0.48497523  0.67668788  0.30467237     0.13500
C1244       C  0.49405649  0.70261254  0.29685684    -0.20900
C1245       C  0.50326857  0.72194999  0.31889963    -0.07400
C1246       C  0.50189811  0.71483681  0.34970126     0.13500
C1247       C  0.51073691  0.73438725  0.37468720    -0.24200
H1248       H  0.49162318  0.68385922  0.38109102     0.14700
H1249       H  0.49521260  0.70799395  0.27325866     0.14800
C1250       C  0.47618061  0.65695715  0.28000863    -0.24200
H1251       H  0.50667325  0.72522851  0.39738971     0.05000
H1252       H  0.50059240  0.74540925  0.37290623     0.08200
H1253       H  0.53175569  0.74764633  0.37337133     0.08200
H1254       H  0.45611042  0.64156236  0.28432698     0.08200
H1255       H  0.48881835  0.64853396  0.27907514     0.08200
H1256       H  0.47680909  0.66547984  0.25748627     0.05000
C1257       C  0.51657162  0.50949478  0.36585230    -0.20800
C1258       C  0.54273525  0.52338190  0.37315811    -0.07400
C1259       C  0.55456922  0.55026385  0.37671824     0.13500
C1260       C  0.53978218  0.56231470  0.37321627    -0.20900
C1261       C  0.51337243  0.54826077  0.36635219    -0.07400
C1262       C  0.50172323  0.52124036  0.36256234     0.13500
C1263       C  0.47354554  0.50402294  0.35557347    -0.24200
H1264       H  0.50744111  0.48892415  0.36294904     0.14700
H1265       H  0.54892933  0.58286169  0.37619359     0.14800
C1266       C  0.58244465  0.56624797  0.38526436    -0.24200
H1267       H  0.46809379  0.48352923  0.35418602     0.05000
H1268       H  0.46885187  0.50930772  0.33336315     0.08200
H1269       H  0.46170099  0.50549834  0.37371779     0.08200
H1270       H  0.59462498  0.56517043  0.36727650     0.08200
H1271       H  0.58601060  0.55918702  0.40693976     0.08200
H1272       H  0.58828783  0.58673530  0.38816906     0.05000
C1273       C  0.67935805  0.55722077  0.28890457    -0.20800
C1274       C  0.67236446  0.54457345  0.26111583    -0.07400
C1275       C  0.64706433  0.52429569  0.25675479     0.13500
C1276       C  0.63046620  0.51488782  0.28144789    -0.20900
C1277       C  0.63892760  0.52451193  0.31064944    -0.07400
C1278       C  0.66315197  0.54705418  0.31416215     0.13500
C1279       C  0.67289436  0.55936236  0.34450469    -0.24200
H1280       H  0.69839981  0.57362297  0.29150773     0.14700
H1281       H  0.61134961  0.49862890  0.27825996     0.14800
C1282       C  0.63789818  0.51180133  0.22634048    -0.24200
H1283       H  0.69231422  0.57659732  0.34286808     0.05000
H1284       H  0.67412807  0.54559417  0.36021092     0.08200
H1285       H  0.65979996  0.56549221  0.35390688     0.08200
H1286       H  0.64897681  0.50264874  0.21926334     0.08200
H1287       H  0.64036992  0.52645462  0.20930871     0.08200
H1288       H  0.61730299  0.49670512  0.22678181     0.05000
C1289       C  0.78676470  0.79876046  0.15471297    -0.20800
C1290       C  0.80621576  0.79347867  0.14735315    -0.07400
C1291       C  0.81377233  0.79487231  0.11691406     0.13500
C1292       C  0.80281076  0.80311873  0.09477486    -0.20900
C1293       C  0.78561142  0.81130403  0.10272317    -0.07400
C1294       C  0.77666788  0.80815598  0.13275980     0.13500
C1295       C  0.75721372  0.81553300  0.14185169    -0.24200
H1296       H  0.78113681  0.79773225  0.17813989     0.14700
H1297       H  0.80970867  0.80571310  0.07170308     0.14800
C1298       C  0.83461325  0.78939004  0.10799114    -0.24200
H1299       H  0.75158430  0.81083500  0.16592342     0.05000
H1300       H  0.73969258  0.80499360  0.12776709     0.08200
H1301       H  0.76528697  0.83645858  0.13884258     0.08200
H1302       H  0.82982064  0.77002830  0.11607103     0.08200
H1303       H  0.85307460  0.80402952  0.11792617     0.08200
H1304       H  0.83718538  0.79011394  0.08309864     0.05000
C1305       C  0.79642142  0.68698782  0.18424500    -0.20800
C1306       C  0.80305148  0.69791377  0.21307277    -0.07400
C1307       C  0.79459779  0.68180093  0.23887476     0.13500
C1308       C  0.78057598  0.65509580  0.23512340    -0.20900
C1309       C  0.77433548  0.64411022  0.20628316    -0.07400
C1310       C  0.78192361  0.66027639  0.18050643    -0.00900
C1311       C  0.77607051  0.64947677  0.14901053    -0.24200
H1312       H  0.80300880  0.69943474  0.16456036     0.14700
H1313       H  0.77492698  0.64265078  0.25480740     0.14800
C1314       C  0.80146823  0.69258768  0.27035401    -0.24200
H1315       H  0.78409691  0.66483424  0.13154377     0.05000
H1316       H  0.75499598  0.63808272  0.14556330     0.08200
H1317       H  0.78456697  0.63709286  0.14558597     0.08200
H1318       H  0.79308643  0.70493809  0.27479872     0.08200
H1319       H  0.82264686  0.70403130  0.27283489     0.08200
H1320       H  0.79401133  0.67720765  0.28779795     0.05000
C1321       C  0.83532492  0.86156007  0.22426761    -0.20800
C1322       C  0.84895969  0.85526843  0.24499286    -0.07400
C1323       C  0.85473618  0.86663440  0.27381836     0.13500
C1324       C  0.84504856  0.88270281  0.28199723    -0.20900
C1325       C  0.82961600  0.88729806  0.26195967    -0.07400
C1326       C  0.82541778  0.87725369  0.23243596     0.13500
C1327       C  0.80921421  0.88173663  0.21000685    -0.24200
H1328       H  0.83091142  0.85269509  0.20215464     0.14700
H1329       H  0.84807691  0.89028768  0.30471236     0.14800
C1330       C  0.86978031  0.86064665  0.29634193    -0.24200
H1331       H  0.80924889  0.87382674  0.18743073     0.05000
H1332       H  0.81662430  0.90260321  0.20733935     0.08200
H1333       H  0.78910323  0.87199934  0.21798967     0.08200
H1334       H  0.88908521  0.86666977  0.28705911     0.08200
H1335       H  0.85969108  0.83975929  0.30104653     0.08200
H1336       H  0.87226416  0.87078623  0.31802980     0.05000
C1337       C  0.85350293  0.83210250  0.46073829    -0.20800
C1338       C  0.87331667  0.83457928  0.47967817    -0.07400
C1339       C  0.87769353  0.84763396  0.50729257     0.13500
C1340       C  0.86085073  0.85611646  0.51633682    -0.20900
C1341       C  0.83956648  0.85181430  0.49850305    -0.07400
C1342       C  0.83674495  0.84071756  0.46947625     0.13500
C1343       C  0.81603969  0.83729548  0.44751513    -0.24200
H1344       H  0.85053785  0.82241646  0.43928946     0.14700
H1345       H  0.86367647  0.86500635  0.53826862     0.14800
C1346       C  0.89907575  0.85118388  0.52809607    -0.24200
H1347       H  0.81814672  0.83004388  0.42534475     0.05000
H1348       H  0.81711968  0.85596685  0.44336245     0.08200
H1349       H  0.79730746  0.82349835  0.95330758     0.08200
H1350       H  0.91782971  0.86274374  0.51657685     0.08200
H1351       H  0.88585913  0.81888803  0.03813692     0.08200
H1352       H  0.89946221  0.86126094  0.54916027     0.05000
C1353       C  0.90857216  0.79533990  0.07548375    -0.20800
C1354       C  0.89758986  0.77019337  0.06503763    -0.07400
C1355       C  0.88598942  0.74959329  0.08571935     0.13500
C1356       C  0.88405345  0.75468568  0.11633945    -0.20900
C1357       C  0.89339634  0.77991900  0.12641156    -0.07400
C1358       C  0.90664153  0.80054899  0.10580737     0.13500
C1359       C  0.91900613  0.82817788  0.11551253    -0.24200
H1360       H  0.91830489  0.81105026  0.05955848     0.14700
H1361       H  0.87407182  0.73888687  0.13208075     0.14800
C1362       C  0.87492569  0.72237264  0.07525757    -0.24200
H1363       H  0.93040791  0.84153682  0.09697992     0.05000
H1364       H  0.93216484  0.83161242  0.13481101     0.08200
H1365       H  0.90420155  0.83297994  0.12208241     0.08200
H1366       H  0.89029811  0.71982600  0.06509446     0.08200
H1367       H  0.85978088  0.71789240  0.05808680     0.08200
H1368       H  0.86628080  0.70850603  0.09423717     0.05000
C1369       C  0.85267178  0.77755349  0.36780350    -0.20800
C1370       C  0.87200138  0.77237391  0.37634268    -0.07400
C1371       C  0.88237459  0.76312700  0.35460786     0.13500
C1372       C  0.87415903  0.76066566  0.32450063    -0.20900
C1373       C  0.85597752  0.76743858  0.31524740    -0.07400
C1374       C  0.84421252  0.77489206  0.33766776     0.13500
C1375       C  0.82247403  0.77965587  0.33049611    -0.24200
H1376       H  0.84446106  0.78416334  0.38479357     0.14700
H1377       H  0.88293474  0.75434401  0.30792485     0.14800
C1378       C  0.90289062  0.75665629  0.36199154    -0.24200
H1379       H  0.81440960  0.78314860  0.35124004     0.05000
H1380       H  0.80674395  0.76264477  0.31907168     0.08200
H1381       H  0.82922817  0.79681926  0.31588613     0.08200
H1382       H  0.90855991  0.75946674  0.38611658     0.08200
H1383       H  0.92018419  0.76895837  0.34822445     0.08200
H1384       H  0.89588672  0.73629202  0.35636308     0.05000
C1385       C  0.69515126  0.51277444  0.46027209    -0.20800
C1386       C  0.71200392  0.50913321  0.44190065    -0.07400
C1387       C  0.70262773  0.49525927  0.41487452     0.13500
C1388       C  0.67718946  0.48691743  0.40592348    -0.20900
C1389       C  0.66069940  0.49219415  0.42316651    -0.07400
C1390       C  0.66966304  0.50437421  0.45151567     0.13500
C1391       C  0.65286011  0.50893597  0.47270861    -0.24200
H1392       H  0.70233850  0.52315151  0.48127398     0.14700
H1393       H  0.67063595  0.47725409  0.38444132     0.14800
C1394       C  0.71982476  0.49061753  0.39451012    -0.24200
H1395       H  0.66261294  0.51704139  0.49457132     0.05000
H1396       H  0.63504916  0.49053828  0.47763935     0.08200
H1397       H  0.64800452  0.52283642  0.46259686     0.08200
H1398       H  0.72675153  0.47910951  0.40669580     0.08200
H1399       H  0.73652145  0.50920554  0.38739187     0.08200
H1400       H  0.70961196  0.47998421  0.37384644     0.05000
C1401       C  0.85017182  0.66074923  0.43594589    -0.20800
C1402       C  0.85695759  0.64562989  0.45368667    -0.07400
C1403       C  0.87806744  0.65817261  0.47376723     0.13500
C1404       C  0.89094171  0.68521414  0.47631045    -0.20900
C1405       C  0.88295386  0.69992054  0.45968255    -0.07400
C1406       C  0.86255824  0.68742967  0.43889747     0.13500
C1407       C  0.85356504  0.70211558  0.41971669    -0.24200
H1408       H  0.83443206  0.65152787  0.42002626     0.14700
H1409       H  0.90648489  0.69478887  0.49240156     0.14800
C1410       C  0.88632662  0.64322988  0.49355237    -0.24200
H1411       H  0.83816817  0.68947548  0.40373517     0.05000
H1412       H  0.86984966  0.71679677  0.40623469     0.08200
H1413       H  0.86838788  0.71350403  0.91095741     0.08200
H1414       H  0.89269824  0.63240417  0.47932189     0.08200
H1415       H  0.87009235  0.62968857  0.50807315     0.08200
H1416       H  0.90256291  0.65599947  0.50851644     0.05000
C1417       C  0.82749178  0.49651110  0.39027918    -0.20800
C1418       C  0.81441772  0.49152997  0.41792877    -0.07400
C1419       C  0.80900756  0.46877707  0.43405667     0.13500
C1420       C  0.81861279  0.45324748  0.42328696    -0.20900
C1421       C  0.83366724  0.45981161  0.39714326    -0.07400
C1422       C  0.83718332  0.48113828  0.37980695     0.13500
C1423       C  0.85109495  0.48781911  0.35000851    -0.24200
H1424       H  0.83117646  0.51324025  0.37718577     0.14700
H1425       H  0.81567872  0.43673344  0.43636101     0.14800
C1426       C  0.79403894  0.46093498  0.46318694    -0.24200
H1427       H  0.85051406  0.50392051  0.33846450     0.05000
H1428       H  0.84184939  0.47092508  0.33490305     0.08200
H1429       H  0.87156972  0.49377077  0.35343412     0.08200
H1430       H  0.77474721  0.45858254  0.45944737     0.08200
H1431       H  0.80449015  0.47551169  0.48086798     0.08200
H1432       H  0.79121577  0.44239168  0.47191738     0.05000
C1433       C  0.77467215  0.57734180  0.34830237    -0.20800
C1434       C  0.79499007  0.57359421  0.35689934    -0.07400
C1435       C  0.80817648  0.56816096  0.33428497     0.13500
C1436       C  0.79962398  0.56522744  0.30413734    -0.20900
C1437       C  0.77803473  0.56707131  0.29628916    -0.07400
C1438       C  0.76591360  0.57393558  0.31852415     0.13500
C1439       C  0.74353350  0.57753565  0.31114168    -0.24200
H1440       H  0.76488578  0.58214706  0.36526375     0.14700
H1441       H  0.80903028  0.56022905  0.28688280     0.14800
C1442       C  0.83034108  0.56418396  0.34170822    -0.24200
H1443       H  0.73776204  0.58486506  0.33074975     0.05000
H1444       H  0.72676910  0.55884583  0.30480846     0.08200
H1445       H  0.74863157  0.59149950  0.29228676     0.08200
H1446       H  0.82406489  0.54809863  0.35799767     0.08200
H1447       H  0.84636489  0.58195107  0.35148544     0.08200
H1448       H  0.83775524  0.55940655  0.32132724     0.05000
C1449       C  0.76097876  0.54687414  0.06449963    -0.20800
C1450       C  0.77040838  0.56819156  0.04496106    -0.07400
C1451       C  0.77512969  0.59202836  0.05667103     0.13500
C1452       C  0.77081262  0.59380588  0.08759735    -0.20900
C1453       C  0.76125767  0.57226807  0.10658414    -0.07400
C1454       C  0.75598504  0.54848904  0.09482437     0.13500
C1455       C  0.74525901  0.52464235  0.11424341    -0.24200
H1456       H  0.75733038  0.52852343  0.05609172     0.14700
H1457       H  0.77421398  0.61183427  0.09681542     0.14800
C1458       C  0.78384472  0.61535936  0.03689011    -0.24200
H1459       H  0.74262530  0.50776661  0.10134444     0.05000
H1460       H  0.72624940  0.51988036  0.12336258     0.08200
H1461       H  0.75860825  0.52773011  0.13310609     0.08200
H1462       H  0.76977994  0.61103153  0.01837237     0.08200
H1463       H  0.80300360  0.62133985  0.02727196     0.08200
H1464       H  0.78545998  0.63184507  0.04975363     0.05000
C1465       C  0.17207327  0.52173790  0.11104007    -0.20800
C1466       C  0.17394482  0.51813812  0.08003837    -0.07400
C1467       C  0.16829152  0.53253848  0.05899282     0.13500
C1468       C  0.15951868  0.54873482  0.06950391    -0.20900
C1469       C  0.15692103  0.55168926  0.10043326    -0.07400
C1470       C  0.16397446  0.53854229  0.12145114     0.13500
C1471       C  0.16185985  0.54126610  0.15486653    -0.24200
H1472       H  0.17643650  0.51089868  0.12722234     0.14700
H1473       H  0.15394993  0.55868912  0.05340676     0.14800
C1474       C  0.17011402  0.53009460  0.02532580    -0.24200
H1475       H  0.16737415  0.52909709  0.16816013     0.05000
H1476       H  0.14179520  0.53555375  0.16079820     0.08200
H1477       H  0.17495135  0.56151213  0.16130174     0.08200
H1478       H  0.15755760  0.50991238  0.01834408     0.08200
H1479       H  0.19026268  0.53660182  0.01895012     0.08200
H1480       H  0.16404544  0.54202457  0.01247106     0.05000
C1481       C  0.09788971  0.58326157  0.46879519    -0.20800
C1482       C  0.10289407  0.56327286  0.46313983    -0.07400
C1483       C  0.10307493  0.54829113  0.48794929     0.13500
C1484       C  0.09927963  0.55560070  0.01804133    -0.20900
C1485       C  0.09461979  0.57567151  0.02379221    -0.07400
C1486       C  0.09433628  0.58936613  0.49843195     0.13500
C1487       C  0.08504546  0.60966140  0.00385131    -0.24200
H1488       H  0.09722408  0.59450284  0.44998852     0.14700
H1489       H  0.10094344  0.54495641  0.03689578     0.14800
C1490       C  0.10624092  0.52525872  0.48392044    -0.24200
H1491       H  0.08649167  0.61860136  0.48114797     0.05000
H1492       H  0.10029461  0.62586831  0.01669270     0.08200
H1493       H  0.06670325  0.60144517  0.01650441     0.08200
H1494       H  0.12578050  0.53117198  0.47559189     0.08200
H1495       H  0.09154846  0.51195503  0.46774338     0.08200
H1496       H  0.10486822  0.51671428  0.00646425     0.05000
C1497       C  0.11917728  0.55278501  0.26278624    -0.20800
C1498       C  0.09386709  0.54015577  0.27330774    -0.07400
C1499       C  0.07375371  0.53580118  0.25338757     0.13500
C1500       C  0.07961463  0.54360082  0.22292802    -0.20900
C1501       C  0.10517202  0.55644079  0.21261359    -0.07400
C1502       C  0.12519418  0.56157801  0.23309649     0.13500
C1503       C  0.15302403  0.57615794  0.22391675    -0.24200
H1504       H  0.13455672  0.55639995  0.27835592     0.14700
H1505       H  0.06435348  0.54038294  0.20736466     0.14800
C1506       C  0.04636991  0.52272320  0.26404423    -0.24200
H1507       H  0.16591934  0.57726531  0.24258140     0.05000
H1508       H  0.15867796  0.59608759  0.21741577     0.08200
H1509       H  0.15610184  0.56642225  0.20472052     0.08200
H1510       H  0.04433041  0.53425194  0.28209005     0.08200
H1511       H  0.04072992  0.50339524  0.27308266     0.08200
H1512       H  0.03300466  0.52048224  0.24540874     0.05000
C1513       C  0.81068020  0.37644056  0.17553015    -0.20800
C1514       C  0.82752614  0.38664561  0.15085566    -0.07400
C1515       C  0.83136586  0.36977902  0.13232463     0.13500
C1516       C  0.82120777  0.34419426  0.14118364    -0.20900
C1517       C  0.80657471  0.33449965  0.16749731    -0.07400
C1518       C  0.80011547  0.35044309  0.18408170     0.13500
C1519       C  0.78374947  0.34063978  0.21199082    -0.24200
H1520       H  0.80726487  0.38916341  0.18937003     0.14700
H1521       H  0.82629354  0.33213553  0.12849620     0.14800
C1522       C  0.84654994  0.37855745  0.10328385    -0.24200
H1523       H  0.78083270  0.35564359  0.22248461     0.05000
H1524       H  0.79307286  0.33430522  0.22892945     0.08200
H1525       H  0.76462960  0.32422934  0.20601618     0.08200
H1526       H  0.86718508  0.39176778  0.10793355     0.08200
H1527       H  0.83892611  0.38821312  0.08863818     0.08200
H1528       H  0.84519665  0.36219537  0.09039361     0.05000
C1529       C  0.87344698  0.52473827  0.04292271    -0.20800
C1530       C  0.86728335  0.52702196  0.07280003    -0.07400
C1531       C  0.85347873  0.53972539  0.07873579     0.13500
C1532       C  0.84395840  0.54747837  0.05440832    -0.20900
C1533       C  0.84809668  0.54302358  0.02441091    -0.07400
C1534       C  0.86423303  0.53277782  0.01857030     0.13500
C1535       C  0.86876818  0.52484698  0.48454239    -0.24200
H1536       H  0.88422772  0.51513719  0.03859108     0.14700
H1537       H  0.83199112  0.55578119  0.05883043     0.14800
C1538       C  0.84704008  0.54339758  0.11047223    -0.24200
H1539       H  0.87891398  0.51376069  0.48408853     0.05000
H1540       H  0.88030088  0.54270581  0.47127479     0.08200
H1541       H  0.84980323  0.51305676  0.47360759     0.08200
H1542       H  0.86500932  0.55538123  0.12328291     0.08200
H1543       H  0.83564116  0.52452322  0.12180597     0.08200
H1544       H  0.83559120  0.55316944  0.11086251     0.05000
C1545       C  0.91450997  0.46114526  0.24766045    -0.20800
C1546       C  0.90183729  0.47360829  0.23626542    -0.07400
C1547       C  0.88925636  0.48166028  0.25658133     0.13500
C1548       C  0.88826897  0.47564028  0.28724874    -0.20900
C1549       C  0.89979472  0.46216744  0.29837854    -0.07400
C1550       C  0.91403554  0.45577275  0.27869261     0.13500
C1551       C  0.92811293  0.44278181  0.29027650    -0.24200
H1552       H  0.92450745  0.45533215  0.23219398     0.14700
H1553       H  0.87749117  0.48055713  0.30250117     0.14800
C1554       C  0.87520224  0.49496191  0.24606974    -0.24200
H1555       H  0.93764367  0.43836843  0.27177114     0.05000
H1556       H  0.91461126  0.42459806  0.30188950     0.08200
H1557       H  0.94309370  0.45567592  0.30649271     0.08200
H1558       H  0.85929424  0.48198677  0.23097232     0.08200
H1559       H  0.88871946  0.51303085  0.23429043     0.08200
H1560       H  0.86665507  0.49997818  0.26514256     0.05000
C1561       C  0.90813444  0.44728282  0.03717309    -0.20800
C1562       C  0.88531410  0.44582047  0.04732281    -0.07400
C1563       C  0.86566598  0.44077614  0.02580957     0.13500
C1564       C  0.87028163  0.43663452  0.49411461    -0.20900
C1565       C  0.89178982  0.43540139  0.48502570    -0.07400
C1566       C  0.91160207  0.44346305  0.00657142     0.13500
C1567       C  0.93385838  0.43722563  0.49769605    -0.24200
H1568       H  0.92334347  0.45140514  0.05321632     0.14700
H1569       H  0.85626024  0.43461625  0.47726225     0.14800
C1570       C  0.84077323  0.43963077  0.03384654    -0.24200
H1571       H  0.95034844  0.45112603  0.01560331     0.05000
H1572       H  0.94480329  0.45236933  0.48058837     0.08200
H1573       H  0.92837266  0.41820377  0.48811343     0.08200
H1574       H  0.84476585  0.45794294  0.04419140     0.08200
H1575       H  0.82939619  0.42334032  0.04945046     0.08200
H1576       H  0.82856452  0.43664663  0.01367796     0.05000
C1577       C  0.98228640  0.51501952  0.12811283    -0.20800
C1578       C  0.96868362  0.52822727  0.13026906    -0.07400
C1579       C  0.98260006  0.55540032  0.12830850     0.13500
C1580       C  0.00960262  0.56836473  0.12536509    -0.20900
C1581       C  0.02307579  0.55494750  0.12483468    -0.07400
C1582       C  0.00901674  0.52780793  0.12556808     0.13500
C1583       C  0.02181908  0.51186920  0.12293334    -0.24200
H1584       H  0.97191638  0.49425308  0.12878303     0.14700
H1585       H  0.02031934  0.58911892  0.12427191     0.14800
C1586       C  0.96942155  0.57093965  0.13007313    -0.24200
H1587       H  0.00761744  0.49106538  0.12144935     0.05000
H1588       H  0.03387127  0.51455147  0.14312305     0.08200
H1589       H  0.03377611  0.51739122  0.10220309     0.08200
H1590       H  0.95901582  0.56708428  0.15184933     0.08200
H1591       H  0.95573683  0.56595602  0.11099307     0.08200
H1592       H  0.98332729  0.59183835  0.12870607     0.05000
C1593       C  0.81502734  0.53137223  0.19781074    -0.20800
C1594       C  0.78862549  0.51599714  0.19304896    -0.07400
C1595       C  0.77852745  0.49064167  0.18288788     0.13500
C1596       C  0.79545349  0.48162897  0.17640966    -0.20900
C1597       C  0.82215911  0.49733707  0.18027482    -0.07400
C1598       C  0.83195155  0.52247788  0.19176400     0.13500
C1599       C  0.86025128  0.54079553  0.19625978    -0.24200
H1600       H  0.82251102  0.55078430  0.20588060     0.14700
H1601       H  0.78787896  0.46250759  0.16739703     0.14800
C1602       C  0.75017925  0.47362672  0.17750711    -0.24200
H1603       H  0.86421447  0.55992980  0.20394122     0.05000
H1604       H  0.87076333  0.54363331  0.17477327     0.08200
H1605       H  0.86778740  0.53318210  0.21381466     0.08200
H1606       H  0.74346563  0.48267843  0.16065417     0.08200
H1607       H  0.73957618  0.47064987  0.19897612     0.08200
H1608       H  0.74556579  0.45455248  0.16883373     0.05000
C1609       C  0.02508760  0.83533920  0.38567405    -0.20800
C1610       C  0.01972185  0.82390338  0.35697615    -0.07400
C1611       C  0.99581593  0.80100045  0.35250371     0.13500
C1612       C  0.97726205  0.79213171  0.37565325    -0.20900
C1613       C  0.98214240  0.80514331  0.40315074    -0.07400
C1614       C  0.00671672  0.82634640  0.40861424     0.13500
C1615       C  0.01301444  0.84108405  0.43766368    -0.24200
H1616       H  0.04325387  0.85262688  0.38975976     0.14700
H1617       H  0.95857706  0.77542141  0.37198545     0.14800
C1618       C  0.98922706  0.78602372  0.32351639    -0.24200
H1619       H  0.03322718  0.85706306  0.43837389     0.05000
H1620       H  0.01000376  0.82821139  0.45715530     0.08200
H1621       H  0.00047840  0.84948282  0.43966098     0.08200
H1622       H  0.00369983  0.78023760  0.31897125     0.08200
H1623       H  0.98861275  0.79764542  0.30440297     0.08200
H1624       H  0.97012341  0.76830941  0.32473089     0.05000
C1625       C  0.97941550  0.83831783  0.27673432    -0.20800
C1626       C  0.99829948  0.85378577  0.25568549    -0.07400
C1627       C  0.99076246  0.85930563  0.22774111     0.13500
C1628       C  0.96454232  0.84704113  0.22034042    -0.20900
C1629       C  0.94559739  0.82977470  0.24046445    -0.07400
C1630       C  0.95321921  0.82608401  0.26954705     0.13500
C1631       C  0.93409534  0.80942793  0.29328997    -0.24200
H1632       H  0.98529307  0.83501884  0.29868884     0.14700
H1633       H  0.95894496  0.85070587  0.19839494     0.14800
C1634       C  0.00965853  0.87877284  0.20593354    -0.24200
H1635       H  0.94352544  0.81058047  0.31531054     0.05000
H1636       H  0.92422502  0.78908729  0.28620944     0.08200
H1637       H  0.91983217  0.81565057  0.29693490     0.08200
H1638       H  0.00900978  0.86933909  0.18427150     0.08200
H1639       H  0.02951078  0.88864299  0.21492653     0.08200
H1640       H  0.00443886  0.89371391  0.20150555     0.05000
C1641       C  0.14778270  0.81363046  0.31313169    -0.20800
C1642       C  0.13842318  0.78947428  0.29978379    -0.07400
C1643       C  0.11502349  0.77879885  0.28335402     0.13500
C1644       C  0.10237784  0.79304140  0.27996530    -0.20900
C1645       C  0.11276846  0.81776765  0.29204914    -0.07400
C1646       C  0.13556732  0.82791845  0.30928716     0.13500
C1647       C  0.14717571  0.85377044  0.32418621    -0.24200
H1648       H  0.16524708  0.82181069  0.32642760     0.14700
H1649       H  0.08491532  0.78532822  0.26670774     0.14800
C1650       C  0.10371206  0.75300348  0.26843820    -0.24200
H1651       H  0.16454318  0.85822656  0.33758383     0.05000
H1652       H  0.13305139  0.85395655  0.33989387     0.08200
H1653       H  0.15304507  0.86911921  0.30694977     0.08200
H1654       H  0.09891940  0.73789943  0.28578684     0.08200
H1655       H  0.11761743  0.75305724  0.25202804     0.08200
H1656       H  0.08579752  0.74806524  0.25595674     0.05000
C1657       C  0.15897846  0.64083636  0.37467038    -0.20800
C1658       C  0.15424117  0.62248500  0.35244751    -0.07400
C1659       C  0.16099518  0.63046777  0.32222665     0.13500
C1660       C  0.17135129  0.65637927  0.31469832    -0.20900
C1661       C  0.17435650  0.67465733  0.33636162    -0.07400
C1662       C  0.16858724  0.66680428  0.36701276     0.13500
C1663       C  0.17222642  0.68539898  0.39173644    -0.24200
H1664       H  0.15380053  0.63456525  0.39788366     0.14700
H1665       H  0.17570019  0.66204147  0.29120682     0.14800
C1666       C  0.15687493  0.61162573  0.29766697    -0.24200
H1667       H  0.16838143  0.67618616  0.41439696     0.05000
H1668       H  0.15875692  0.69269397  0.38857203     0.08200
H1669       H  0.19229912  0.70164949  0.39157217     0.08200
H1670       H  0.13605577  0.59801231  0.29496360     0.08200
H1671       H  0.16689426  0.60097357  0.30356498     0.08200
H1672       H  0.16430472  0.62125188  0.27551925     0.05000
C1673       C  0.12505840  0.66596455  0.24152244    -0.20800
C1674       C  0.13692401  0.69205877  0.23392027    -0.07400
C1675       C  0.13693992  0.69929418  0.20343070     0.13500
C1676       C  0.12757916  0.68042470  0.18098245    -0.20900
C1677       C  0.11873399  0.65472022  0.18828821    -0.07400
C1678       C  0.11641869  0.64718984  0.21894883     0.13500
C1679       C  0.10669560  0.61971240  0.22785319    -0.24200
H1680       H  0.12503699  0.66044957  0.26489525     0.14700
H1681       H  0.12915643  0.68603176  0.15741242     0.14800
C1682       C  0.14745610  0.72692254  0.19434487    -0.24200
H1683       H  0.10482148  0.61697895  0.25274608     0.05000
H1684       H  0.12041574  0.61386282  0.22017264     0.08200
H1685       H  0.08757434  0.60715757  0.21755156     0.08200
H1686       H  0.16838877  0.73831710  0.19865805     0.08200
H1687       H  0.13750714  0.73505951  0.20727629     0.08200
H1688       H  0.14445104  0.72884136  0.16991427     0.05000
C1689       C  0.18945554  0.70708607  0.04776251    -0.20800
C1690       C  0.21137772  0.72316501  0.06484384    -0.07400
C1691       C  0.21837183  0.71250797  0.08906491     0.13500
C1692       C  0.20168454  0.68668489  0.09747618    -0.20900
C1693       C  0.17828441  0.67159024  0.08224043    -0.07400
C1694       C  0.17280910  0.68162079  0.05619351     0.13500
C1695       C  0.14907817  0.66572981  0.03748158    -0.24200
H1696       H  0.18452760  0.71494211  0.02846866     0.14700
H1697       H  0.20598353  0.67889715  0.11731962     0.14800
C1698       C  0.24238100  0.72859459  0.10713315    -0.24200
H1699       H  0.14876008  0.67608421  0.01679135     0.05000
H1700       H  0.13161542  0.66095410  0.05063492     0.08200
H1701       H  0.14845572  0.64782504  0.03035109     0.08200
H1702       H  0.24165460  0.74493885  0.11741442     0.08200
H1703       H  0.25941395  0.73599586  0.09218706     0.08200
H1704       H  0.24467339  0.71734968  0.12559829     0.05000
C1705       C  0.37012250  0.86122859  0.11101552    -0.20800
C1706       C  0.37924541  0.84438178  0.10552856    -0.07400
C1707       C  0.36238521  0.81989769  0.09363238     0.13500
C1708       C  0.33722457  0.81361221  0.08571171    -0.20900
C1709       C  0.32850418  0.83119173  0.08937574    -0.07400
C1710       C  0.34515396  0.85513647  0.10314739     0.13500
C1711       C  0.33767987  0.87525262  0.10802861    -0.24200
H1712       H  0.38317711  0.87994018  0.12039844     0.14700
H1713       H  0.32464062  0.79513721  0.07553401     0.14800
C1714       C  0.37060147  0.80054270  0.08766508    -0.24200
H1715       H  0.35354304  0.89298075  0.11814508     0.05000
H1716       H  0.32116478  0.86787511  0.12375739     0.08200
H1717       H  0.33267774  0.88068784  0.08610483     0.08200
H1718       H  0.39077450  0.80742838  0.09428824     0.08200
H1719       H  0.35814658  0.78271656  0.10060997     0.08200
H1720       H  0.36861307  0.79597039  0.06320565     0.05000
C1721       C  0.24169780  0.79817695  0.19413285    -0.20800
C1722       C  0.22028211  0.79645906  0.20883678    -0.07400
C1723       C  0.20371387  0.80247647  0.19244988     0.13500
C1724       C  0.20851963  0.80891172  0.16154208    -0.20900
C1725       C  0.22974758  0.81006746  0.14705487    -0.07400
C1726       C  0.24675623  0.80512094  0.16369402     0.13500
C1727       C  0.27001492  0.80657004  0.14921131    -0.24200
H1728       H  0.25439922  0.79352897  0.20636686     0.14700
H1729       H  0.19536889  0.81245529  0.14844603     0.14800
C1730       C  0.18044698  0.80107397  0.20688096    -0.24200
H1731       H  0.28083426  0.80127636  0.16524881     0.05000
H1732       H  0.28309152  0.82649056  0.14151227     0.08200
H1733       H  0.26418776  0.79335825  0.12967661     0.08200
H1734       H  0.18649915  0.81530929  0.22534989     0.08200
H1735       H  0.16774643  0.78158070  0.21618900     0.08200
H1736       H  0.16913253  0.80534310  0.19039851     0.05000
C1737       C  0.22700053  0.77816526  0.44040058    -0.20800
C1738       C  0.21075160  0.78142567  0.46030342    -0.07400
C1739       C  0.18879177  0.78129159  0.44846414     0.13500
C1740       C  0.18380803  0.77784683  0.41718701    -0.20900
C1741       C  0.20051451  0.77519145  0.39748423    -0.07400
C1742       C  0.22228186  0.77513326  0.40936249     0.13500
C1743       C  0.24035247  0.77114342  0.38965171    -0.24200
H1744       H  0.24394030  0.77836582  0.44908204     0.14700
H1745       H  0.16705456  0.77771058  0.40795958     0.14800
C1746       C  0.17039088  0.78441308  0.46843486    -0.24200
H1747       H  0.25526521  0.76985602  0.40311231     0.05000
H1748       H  0.25049345  0.78749079  0.37376678     0.08200
H1749       H  0.22945941  0.75303771  0.37678632     0.08200
H1750       H  0.18027885  0.80364892  0.47901219     0.08200
H1751       H  0.16282663  0.76934088  0.48623686     0.08200
H1752       H  0.15379927  0.78272258  0.45546199     0.05000
C1753       C  0.02575218  0.86512652  0.04259122    -0.20800
C1754       C  0.04147832  0.88587641  0.02363914    -0.07400
C1755       C  0.03145375  0.89218926  0.49991057     0.13500
C1756       C  0.00542374  0.87545013  0.49266806    -0.20900
C1757       C  0.98951592  0.85085963  0.00789521    -0.07400
C1758       C  0.00002815  0.84763738  0.03528404     0.13500
C1759       C  0.98484007  0.82566564  0.05683654    -0.24200
H1760       H  0.03415785  0.86178115  0.06257812     0.14700
H1761       H  0.99727966  0.87995711  0.47335385     0.14800
C1762       C  0.04722099  0.91562913  0.48071622    -0.24200
H1763       H  0.99558695  0.82768819  0.07806351     0.05000
H1764       H  0.98060648  0.80726127  0.04648562     0.08200
H1765       H  0.96674496  0.82509591  0.06306391     0.08200
H1766       H  0.06329303  0.91450030  0.47014556     0.08200
H1767       H  0.05508137  0.93305503  0.49492996     0.08200
H1768       H  0.03560481  0.91748982  0.46239383     0.05000
C1769       C  0.17027567  0.86423662  0.03855272    -0.20800
C1770       C  0.18422352  0.89107426  0.03640196    -0.07400
C1771       C  0.21135661  0.90368300  0.03800017     0.13500
C1772       C  0.22359375  0.88900882  0.04140513    -0.20900
C1773       C  0.20942253  0.86204896  0.04373565    -0.07400
C1774       C  0.18219618  0.84962492  0.04221106     0.13500
C1775       C  0.16504476  0.82084866  0.04400587    -0.24200
H1776       H  0.14949672  0.85437191  0.03763161     0.14700
H1777       H  0.24434343  0.89870052  0.04265373     0.14800
C1778       C  0.22751495  0.93239621  0.03555555    -0.24200
H1779       H  0.14456465  0.81471525  0.03988393     0.05000
H1780       H  0.16615801  0.81383174  0.06687762     0.08200
H1781       H  0.17077304  0.81150694  0.02671880     0.08200
H1782       H  0.22319680  0.94144607  0.05464732     0.08200
H1783       H  0.22347265  0.93899406  0.01383325     0.08200
H1784       H  0.24833793  0.93896308  0.03634140     0.05000
C1785       C  0.11692804  0.88377850  0.42319269    -0.20800
C1786       C  0.13206887  0.90867688  0.43459734    -0.07400
C1787       C  0.14414164  0.92949825  0.41406481     0.13500
C1788       C  0.13922576  0.92504161  0.38299478    -0.20900
C1789       C  0.12320143  0.90031012  0.37180715    -0.07400
C1790       C  0.11254568  0.87926068  0.39209538     0.13500
C1791       C  0.09573934  0.85189708  0.38206580    -0.24200
H1792       H  0.10804167  0.86767402  0.43874516     0.14700
H1793       H  0.14732975  0.94108277  0.36738747     0.14800
C1794       C  0.16106100  0.95660975  0.42469645    -0.24200
H1795       H  0.10495000  0.84058575  0.38850061     0.05000
H1796       H  0.09227164  0.84997703  0.35739982     0.08200
H1797       H  0.07688609  0.84337959  0.39353833     0.08200
H1798       H  0.17819285  0.95840490  0.43642398     0.08200
H1799       H  0.15012473  0.96187278  0.44026170     0.08200
H1800       H  0.16794523  0.97052616  0.40561706     0.05000
C1801       C  0.07902108  0.87006367  0.13457404    -0.20800
C1802       C  0.10316016  0.87957697  0.12126394    -0.07400
C1803       C  0.12391962  0.88236406  0.13909370     0.13500
C1804       C  0.12066033  0.87847214  0.17058231    -0.20900
C1805       C  0.09668645  0.87020964  0.18413296    -0.07400
C1806       C  0.07539619  0.86470713  0.16557217     0.13500
C1807       C  0.04911316  0.85482319  0.17858626    -0.24200
H1808       H  0.06305414  0.86759727  0.12072038     0.14700
H1809       H  0.13684532  0.88197567  0.18467477     0.14800
C1810       C  0.14952671  0.88998951  0.12507459    -0.24200
H1811       H  0.03484323  0.85230854  0.16099994     0.05000
H1812       H  0.05009873  0.86880321  0.19527427     0.08200
H1813       H  0.04238997  0.83595453  0.18964476     0.08200
H1814       H  0.15686550  0.90819351  0.11227750     0.08200
H1815       H  0.14733002  0.87482705  0.10923987     0.08200
H1816       H  0.16399893  0.89252036  0.14238724     0.05000
C1817       C  0.50358554  0.17119951  0.13625878    -0.20800
C1818       C  0.50843027  0.18361925  0.16432387    -0.07400
C1819       C  0.53057447  0.18768598  0.18085421     0.13500
C1820       C  0.54560679  0.17752786  0.16999585    -0.20900
C1821       C  0.53926898  0.16332530  0.14326818    -0.07400
C1822       C  0.51855649  0.16102130  0.12560926     0.13500
C1823       C  0.51214993  0.14793751  0.09528377    -0.24200
H1824       H  0.48731785  0.16853157  0.12290680     0.14700
H1825       H  0.56165329  0.17952567  0.18329933     0.14800
C1826       C  0.53839753  0.20196940  0.21039204    -0.24200
H1827       H  0.49670861  0.14959590  0.08357072     0.05000
H1828       H  0.50534411  0.12722011  0.09801916     0.08200
H1829       H  0.52939718  0.15689952  0.08057819     0.08200
H1830       H  0.52332938  0.19175593  0.22771638     0.08200
H1831       H  0.54181779  0.22168875  0.20703470     0.08200
H1832       H  0.55640358  0.20366670  0.21944857     0.05000
C1833       C  0.18782122  0.00222827  0.15713776    -0.20800
C1834       C  0.20013265  0.02780728  0.14726314    -0.07400
C1835       C  0.20452328  0.03329714  0.11602028     0.13500
C1836       C  0.19491982  0.01294669  0.09546514    -0.20900
C1837       C  0.18029409  0.98734894  0.10522441    -0.07400
C1838       C  0.17753138  0.98191151  0.13659922     0.13500
C1839       C  0.16399296  0.95489878  0.14881789    -0.24200
H1840       H  0.18473347  0.99803599  0.18111296     0.14700
H1841       H  0.19721947  0.01717971  0.07146162     0.14800
C1842       C  0.21898438  0.06041986  0.10408260    -0.24200
H1843       H  0.16468261  0.95446779  0.17388466     0.05000
H1844       H  0.17368865  0.94476554  0.14022964     0.08200
H1845       H  0.14346384  0.94457427  0.14225107     0.08200
H1846       H  0.23804722  0.07098208  0.11521351     0.08200
H1847       H  0.20803437  0.07035268  0.10824437     0.08200
H1848       H  0.22215989  0.06098069  0.07932426     0.05000
C1849       C  0.34009335  0.12422126  0.18871834    -0.20800
C1850       C  0.35632841  0.14260297  0.20980378    -0.07400
C1851       C  0.34540833  0.14755061  0.23517844     0.13500
C1852       C  0.31867459  0.13496824  0.23825714    -0.20900
C1853       C  0.30226249  0.11769401  0.21641626    -0.07400
C1854       C  0.31311587  0.11169559  0.19166648     0.13500
C1855       C  0.29646595  0.09335967  0.16747260    -0.24200
H1856       H  0.34850889  0.12065608  0.16909437     0.14700
H1857       H  0.31047564  0.13938144  0.25744106     0.14800
C1858       C  0.36187055  0.16683545  0.25862776    -0.24200
H1859       H  0.30811128  0.09165397  0.14924539     0.05000
H1860       H  0.28413586  0.10018384  0.15713187     0.08200
H1861       H  0.28420302  0.07400240  0.17738831     0.08200
H1862       H  0.37155483  0.18623638  0.24836953     0.08200
H1863       H  0.37630160  0.16215090  0.26745568     0.08200
H1864       H  0.35036601  0.16708863  0.27800939     0.05000
C1865       C  0.15030920  0.00439548  0.27808950    -0.20800
C1866       C  0.14809145  0.01179163  0.24854344    -0.07400
C1867       C  0.12872159  0.99318418  0.22933568     0.13500
C1868       C  0.11368353  0.96768375  0.23955297    -0.20900
C1869       C  0.11781520  0.96014215  0.26798318    -0.07400
C1870       C  0.13573088  0.97886007  0.28784837     0.13500
C1871       C  0.13995378  0.97184303  0.31923318    -0.24200
H1872       H  0.16454628  0.01840660  0.29324531     0.14700
H1873       H  0.09980313  0.95318738  0.22451889     0.14800
C1874       C  0.12448527  0.99934740  0.19750679    -0.24200
H1875       H  0.15393434  0.98893486  0.33220185     0.05000
H1876       H  0.14762843  0.95859902  0.31794459     0.08200
H1877       H  0.12153635  0.96246790  0.33181299     0.08200
H1878       H  0.14199570  0.00543148  0.18376705     0.08200
H1879       H  0.11952680  0.01474171  0.19779469     0.08200
H1880       H  0.10848269  0.98247526  0.18618465     0.05000
C1881       C  0.45382081  0.84124338  0.31546076    -0.20800
C1882       C  0.44675876  0.83908730  0.34599183    -0.07400
C1883       C  0.45385320  0.82513101  0.36583640     0.13500
C1884       C  0.46966625  0.81579250  0.35510554    -0.20900
C1885       C  0.47856083  0.82012580  0.32517513    -0.07400
C1886       C  0.46956074  0.83204955  0.30488492     0.13500
C1887       C  0.47716111  0.83589781  0.27208467    -0.24200
H1888       H  0.44794018  0.85131217  0.29992640     0.14700
H1889       H  0.47615322  0.80628196  0.37053221     0.14800
C1890       C  0.44616271  0.82131074  0.39861142    -0.24200
H1891       H  0.46747943  0.84447089  0.25913689     0.05000
H1892       H  0.47185763  0.81718778  0.26168992     0.08200
H1893       H  0.49807128  0.84904940  0.27009427     0.08200
H1894       H  0.42492692  0.81021448  0.40045957     0.08200
H1895       H  0.45364281  0.84017956  0.40975438     0.08200
H1896       H  0.45388171  0.81054109  0.41094408     0.05000
C1897       C  0.41766741  0.89670050  0.21363202    -0.20800
C1898       C  0.43996966  0.89556242  0.20788535    -0.07400
C1899       C  0.45714452  0.89980174  0.23209437     0.13500
C1900       C  0.45100349  0.90386577  0.26130037    -0.20900
C1901       C  0.42798395  0.90347134  0.26750026    -0.07400
C1902       C  0.41127373  0.90029994  0.24309025     0.13500
C1903       C  0.38679464  0.90085647  0.24764874    -0.24200
H1904       H  0.40465563  0.89379781  0.19512500     0.14700
H1905       H  0.46395681  0.90637741  0.27972817     0.14800
C1906       C  0.48226188  0.90046940  0.22749350    -0.24200
H1907       H  0.37716373  0.89990148  0.22584642     0.05000
H1908       H  0.39107069  0.91891756  0.25903381     0.08200
H1909       H  0.37309815  0.88415279  0.26143554     0.08200
H1910       H  0.49355916  0.91468089  0.20965196     0.08200
H1911       H  0.47877667  0.88126426  0.22100737     0.08200
H1912       H  0.49407873  0.90602835  0.24839340     0.05000
C1913       C  0.47041004  0.89863790  0.46344326    -0.20800
C1914       C  0.44656946  0.89669528  0.45768842    -0.07400
C1915       C  0.43366835  0.90087143  0.48174633     0.13500
C1916       C  0.44394357  0.90502441  0.51097989    -0.20900
C1917       C  0.46471374  0.90257205  0.01673828    -0.07400
C1918       C  0.47843664  0.89916435  0.99289729     0.13500
C1919       C  0.50346747  0.89980508  0.99826176    -0.24200
H1920       H  0.48066396  0.89610777  0.44497884     0.14700
H1921       H  0.43178558  0.90590326  0.02770049     0.14800
C1922       C  0.40919919  0.90142207  0.47693996    -0.24200
H1923       H  0.51238472  0.89888299  0.97675722     0.05000
H1924       H  0.50027455  0.88311361  0.01219710     0.08200
H1925       H  0.51721686  0.91789192  0.00977909     0.08200
H1926       H  0.39332341  0.88210566  0.47076942     0.08200
H1927       H  0.41212777  0.91545048  0.45883051     0.08200
H1928       H  0.40316988  0.90725614  0.49765839     0.05000
C1929       C  0.34924361  0.89201800  0.45421392    -0.20800
C1930       C  0.34165416  0.87940345  0.42637294    -0.07400
C1931       C  0.31579515  0.86018819  0.42218825     0.13500
C1932       C  0.29905595  0.85178477  0.44689098    -0.20900
C1933       C  0.30761122  0.86165671  0.47598395    -0.07400
C1934       C  0.33263604  0.88314900  0.47935723     0.13500
C1935       C  0.34266028  0.89556832  0.50958986    -0.24200
H1936       H  0.36882454  0.90740658  0.45695650     0.14700
H1937       H  0.27959644  0.83605525  0.44384088     0.14800
C1938       C  0.30605070  0.84771931  0.39188476    -0.24200
H1939       H  0.36267469  0.91183821  0.50801426     0.05000
H1940       H  0.34249512  0.88138034  0.52583044     0.08200
H1941       H  0.33071623  0.90337992  0.01662186     0.08200
H1942       H  0.31593422  0.83727601  0.38510378     0.08200
H1943       H  0.30960075  0.86258747  0.37464791     0.08200
H1944       H  0.28512580  0.83372375  0.39233896     0.05000
C1945       C  0.28899370  0.78253877  0.33298046    -0.20800
C1946       C  0.28027458  0.79045715  0.30794712    -0.07400
C1947       C  0.29824511  0.81169977  0.29056000     0.13500
C1948       C  0.32356277  0.82627312  0.30071458    -0.20900
C1949       C  0.33160200  0.82015736  0.32760101    -0.07400
C1950       C  0.31455729  0.79727310  0.34314530     0.13500
C1951       C  0.32270632  0.78932499  0.37147183    -0.24200
H1952       H  0.27539553  0.76588563  0.34584203     0.14700
H1953       H  0.33686915  0.84351519  0.28848474     0.14800
C1954       C  0.29098705  0.81916636  0.26115794    -0.24200
H1955       H  0.30684800  0.77121727  0.38101997     0.05000
H1956       H  0.32879227  0.80441686  0.38890902     0.08200
H1957       H  0.33895192  0.78623829  0.36630830     0.08200
H1958       H  0.28258981  0.80242212  0.24587351     0.08200
H1959       H  0.27709807  0.82579986  0.26488985     0.08200
H1960       H  0.30792680  0.83500935  0.24962151     0.05000
C1961       C  0.62601914  0.18372949  0.41615743    -0.20800
C1962       C  0.61511981  0.16402203  0.39477044    -0.07400
C1963       C  0.63065831  0.15576597  0.38073123     0.13500
C1964       C  0.65624522  0.16606116  0.38993274    -0.20900
C1965       C  0.66680252  0.18437991  0.41302606    -0.07400
C1966       C  0.65174475  0.19401684  0.42554891     0.13500
C1967       C  0.66208602  0.21383786  0.45012688    -0.24200
H1968       H  0.61400765  0.19010817  0.42666260     0.14700
H1969       H  0.66775402  0.15879699  0.38005962     0.14800
C1970       C  0.62003420  0.13556069  0.35650250    -0.24200
H1971       H  0.64758009  0.21878116  0.45773341     0.05000
H1972       H  0.67899389  0.23164865  0.44162906     0.08200
H1973       H  0.66776567  0.20644929  0.46996862     0.08200
H1974       H  0.61270942  0.14211243  0.33740806     0.08200
H1975       H  0.60415500  0.11736381  0.36578159     0.08200
H1976       H  0.63487746  0.13160885  0.34755341     0.05000
C1977       C  0.45376562  0.99084819  0.34403255    -0.20800
C1978       C  0.44612402  0.97554542  0.37024688    -0.07400
C1979       C  0.45218039  0.98749838  0.39882349     0.13500
C1980       C  0.46586578  0.01441373  0.40047049    -0.20900
C1981       C  0.47454747  0.02971891  0.37430347    -0.07400
C1982       C  0.46832024  0.01777371  0.34569058     0.13500
C1983       C  0.47674660  0.03331599  0.31690506    -0.24200
H1984       H  0.44918637  0.98163601  0.32214196     0.14700
H1985       H  0.47064298  0.02357771  0.42239129     0.14800
C1986       C  0.44404030  0.97193843  0.42761457    -0.24200
H1987       H  0.46931227  0.02096072  0.29661158     0.05000
H1988       H  0.49799814  0.04409840  0.31546208     0.08200
H1989       H  0.46950791  0.04698340  0.31637861     0.08200
H1990       H  0.45343472  0.96020534  0.42951022     0.08200
H1991       H  0.42288251  0.95913421  0.42772784     0.08200
H1992       H  0.44945113  0.98434440  0.44788616     0.05000
C1993       C  0.52150722  0.07612321  0.99486032    -0.20800
C1994       C  0.53065169  0.10130127  0.47707927    -0.07400
C1995       C  0.54840485  0.12518839  0.48952550     0.13500
C1996       C  0.54886503  0.12443642  0.02114863    -0.20900
C1997       C  0.54146054  0.10264283  0.03936547    -0.07400
C1998       C  0.52778249  0.07801503  0.02583794     0.13500
C1999       C  0.51978072  0.05372886  0.04349013    -0.24200
H2000       H  0.51081680  0.05746663  0.98432708     0.14700
H2001       H  0.55972266  0.14344444  0.03074077     0.14800
C2002       C  0.56185193  0.14911119  0.47031471    -0.24200
H2003       H  0.53695862  0.05402034  0.05305447     0.05000
H2004       H  0.50962105  0.03645436  0.02906064     0.08200
H2005       H  0.50653812  0.05184809  0.06195343     0.08200
H2006       H  0.54766167  0.15330751  0.45970439     0.08200
H2007       H  0.57313028  0.14642394  0.45254734     0.08200
H2008       H  0.57533692  0.16613868  0.48372485     0.05000
C2009       C  0.55266276  0.09097078  0.27942414    -0.20800
C2010       C  0.55801926  0.11562824  0.28785060    -0.07400
C2011       C  0.56759259  0.13549758  0.26593194     0.13500
C2012       C  0.57007261  0.12981900  0.23599768    -0.20900
C2013       C  0.56357510  0.10499923  0.22738791    -0.07400
C2014       C  0.55524870  0.08539343  0.24929480     0.13500
C2015       C  0.54800393  0.05849421  0.24066803    -0.24200
H2016       H  0.54547317  0.07578455  0.29621544     0.14700
H2017       H  0.57683112  0.14483065  0.21896794     0.14800
C2018       C  0.57572729  0.16283214  0.27382573    -0.24200
H2019       H  0.54126234  0.04534862  0.26048666     0.05000
H2020       H  0.56488611  0.05838298  0.23094870     0.08200
H2021       H  0.53232204  0.05105306  0.22366614     0.08200
H2022       H  0.58997211  0.16946784  0.29249811     0.08200
H2023       H  0.55885715  0.16435275  0.28060047     0.08200
H2024       H  0.58476456  0.17600227  0.25430962     0.05000
C2025       C  0.44827262  0.14749760  0.29915747    -0.20800
C2026       C  0.45554347  0.14626506  0.26941652    -0.07400
C2027       C  0.46800870  0.13217613  0.26334585     0.13500
C2028       C  0.47526611  0.12205764  0.28758974    -0.20900
C2029       C  0.47009867  0.12547193  0.31746160    -0.07400
C2030       C  0.45537986  0.13717985  0.32328174     0.13500
C2031       C  0.44854502  0.14013125  0.35511399    -0.24200
H2032       H  0.43831670  0.15789007  0.30370768     0.14700
H2033       H  0.48687294  0.11331183  0.28339994     0.14800
C2034       C  0.47554820  0.12947313  0.23175158    -0.24200
H2035       H  0.43665126  0.14941898  0.35564114     0.05000
H2036       H  0.46624007  0.15212000  0.36840213     0.08200
H2037       H  0.43747869  0.12096447  0.36595205     0.08200
H2038       H  0.48816583  0.14864165  0.22167065     0.08200
H2039       H  0.45810792  0.11884595  0.21759037     0.08200
H2040       H  0.48609388  0.11877669  0.23143174     0.05000
C2041       C  0.48862054  0.19164941  0.45799222    -0.20800
C2042       C  0.49642626  0.21512335  0.44332677    -0.07400
C2043       C  0.51560663  0.22349513  0.42079111     0.13500
C2044       C  0.52449605  0.20694930  0.41154217    -0.20900
C2045       C  0.51452173  0.18232184  0.42425661    -0.07400
C2046       C  0.49732542  0.17519749  0.44885927     0.13500
C2047       C  0.48763993  0.15004287  0.46542733    -0.24200
H2048       H  0.47452478  0.18548751  0.47589842     0.14700
H2049       H  0.53783643  0.21251525  0.39285406     0.14800
C2050       C  0.52551448  0.24898439  0.40518502    -0.24200
H2051       H  0.47607284  0.14871725  0.48554201     0.05000
H2052       H  0.50411822  0.14817090  0.47335060     0.08200
H2053       H  0.47513961  0.13370681  0.45060271     0.08200
H2054       H  0.53477522  0.26465669  0.42195051     0.08200
H2055       H  0.50943543  0.24984551  0.39400528     0.08200
H2056       H  0.53999282  0.25220607  0.38768115     0.05000
C2057       C  0.53172839  0.35036313  0.43568664    -0.20800
C2058       C  0.51284408  0.33289182  0.41560688    -0.07400
C2059       C  0.51223963  0.34131561  0.38572988     0.13500
C2060       C  0.52862405  0.36717760  0.37798044    -0.20900
C2061       C  0.54571554  0.38493643  0.39897694    -0.07400
C2062       C  0.54795771  0.37625994  0.42781264     0.13500
C2063       C  0.56591551  0.39464579  0.45107910    -0.24200
H2064       H  0.53271331  0.34425008  0.45847561     0.14700
H2065       H  0.52720891  0.37393945  0.35568671     0.14800
C2066       C  0.49417266  0.32361946  0.36188488    -0.24200
H2067       H  0.56512039  0.38482438  0.47269784     0.05000
H2068       H  0.56041666  0.40925827  0.45574140     0.08200
H2069       H  0.58593907  0.40417480  0.44259249     0.08200
H2070       H  0.47405364  0.31767418  0.36770009     0.08200
H2071       H  0.49640755  0.30652163  0.35976791     0.08200
H2072       H  0.49810289  0.33309595  0.33937718     0.05000
C2073       C  0.43887354  0.25265355  0.33589512    -0.20800
C2074       C  0.42938188  0.23137733  0.35534341    -0.07400
C2075       C  0.42006130  0.20660019  0.34314986     0.13500
C2076       C  0.42122697  0.20395962  0.31185191    -0.20900
C2077       C  0.43220148  0.22546076  0.29282685    -0.07400
C2078       C  0.44094085  0.25004919  0.30482541     0.13500
C2079       C  0.45299826  0.27357417  0.28500886    -0.24200
H2080       H  0.44590906  0.27158501  0.34523379     0.14700
H2081       H  0.41479510  0.18518533  0.30234121     0.14800
C2082       C  0.40888607  0.18290818  0.36277429    -0.24200
H2083       H  0.45801874  0.29120703  0.29792107     0.05000
H2084       H  0.43950112  0.27160616  0.26667609     0.08200
H2085       H  0.47091962  0.27594695  0.27507803     0.08200
H2086       H  0.39292329  0.18161956  0.37649707     0.08200
H2087       H  0.42389363  0.18345433  0.37786090     0.08200
H2088       H  0.40117468  0.16518198  0.34909237     0.05000
C2089       C  0.41586647  0.21882813  0.06004016    -0.20800
C2090       C  0.43136853  0.21255406  0.04284515    -0.07400
C2091       C  0.44278400  0.19952185  0.05648819     0.13500
C2092       C  0.43931172  0.19405705  0.08744646    -0.20900
C2093       C  0.42548341  0.20211440  0.10516649    -0.07400
C2094       C  0.41330161  0.21437409  0.09131157     0.13500
C2095       C  0.39766736  0.22278053  0.10926702    -0.24200
H2096       H  0.40688540  0.22849319  0.04922015     0.14700
H2097       H  0.44843949  0.18446899  0.09815014     0.14800
C2098       C  0.45838513  0.19112425  0.03844144    -0.24200
H2099       H  0.38855534  0.23091002  0.09448170     0.05000
H2100       H  0.41013902  0.23785790  0.12557129     0.08200
H2101       H  0.38223247  0.20613645  0.12165006     0.08200
H2102       H  0.47561313  0.20800546  0.02887369     0.08200
H2103       H  0.44643468  0.17843380  0.01985371     0.08200
H2104       H  0.46505603  0.18030603  0.05254726     0.05000
C2105       C  0.16092986  0.05240909  0.01567192    -0.20800
C2106       C  0.17070450  0.05932874  0.48816177    -0.07400
C2107       C  0.16527345  0.04009311  0.46657621     0.13500
C2108       C  0.15468451  0.01444264  0.47605122    -0.20900
C2109       C  0.14910900  0.00729888  0.50659427    -0.07400
C2110       C  0.14947090  0.02655088  0.02495226     0.13500
C2111       C  0.13873046  0.01977776  0.05652263    -0.24200
H2112       H  0.16181919  0.06669353  0.03112785     0.14700
H2113       H  0.15145094  0.99996824  0.45954004     0.14800
C2114       C  0.17201135  0.04673999  0.43373579    -0.24200
H2115       H  0.14081440  0.03673019  0.06875986     0.05000
H2116       H  0.14907467  0.01210517  0.06977675     0.08200
H2117       H  0.11794905  0.00536874  0.05559079     0.08200
H2118       H  0.19292691  0.06029052  0.43142565     0.08200
H2119       H  0.16126403  0.05568455  0.42430676     0.08200
H2120       H  0.16711341  0.02950569  0.42006585     0.05000
C2121       C  0.34940770  0.22759140  0.47648235    -0.20800
C2122       C  0.35972569  0.22342804  0.45029607    -0.07400
C2123       C  0.34292481  0.20735834  0.42743998     0.13500
C2124       C  0.31631434  0.19499912  0.43199162    -0.20900
C2125       C  0.30586591  0.19798352  0.45887292    -0.07400
C2126       C  0.32272059  0.21486819  0.48129771     0.13500
C2127       C  0.31300228  0.21854211  0.51108848    -0.24200
H2128       H  0.36235072  0.23982644  0.49395379     0.14700
H2129       H  0.30355332  0.18247301  0.41459768     0.14800
C2130       C  0.35287015  0.20323572  0.39803492    -0.24200
H2131       H  0.32896355  0.23132001  0.52637515     0.05000
H2132       H  0.30158610  0.19977288  0.52272138     0.08200
H2133       H  0.30099097  0.22745773  0.50732671     0.08200
H2134       H  0.36339512  0.19283047  0.40212028     0.08200
H2135       H  0.36581744  0.22199518  0.38709782     0.08200
H2136       H  0.33704615  0.19160960  0.38199996     0.05000
C2137       C  0.14182945  0.17061609  0.47819309    -0.20800
C2138       C  0.14993191  0.15838214  0.00266762    -0.07400
C2139       C  0.14396793  0.15860532  0.03338352     0.13500
C2140       C  0.12799997  0.16841988  0.04158803    -0.20900
C2141       C  0.11869107  0.17879992  0.01973416    -0.07400
C2142       C  0.12631867  0.18080316  0.48640102     0.13500
C2143       C  0.11736153  0.19207681  0.46193083    -0.24200
H2144       H  0.14791559  0.17200064  0.45489490     0.14700
H2145       H  0.12418077  0.16952781  0.06526377     0.14800
C2146       C  0.15536168  0.14954815  0.05741646    -0.24200
H2147       H  0.12258221  0.18873752  0.43906049     0.05000
H2148       H  0.12647197  0.21310142  0.46469688     0.08200
H2149       H  0.09615981  0.18314798  0.46277776     0.08200
H2150       H  0.17659855  0.16141548  0.05682102     0.08200
H2151       H  0.14959635  0.12921808  0.05333701     0.08200
H2152       H  0.14880844  0.15097580  0.08035331     0.05000
C2153       C  0.24780117  0.13053186  0.10964668    -0.20800
C2154       C  0.23378133  0.13748485  0.12854095    -0.07400
C2155       C  0.22350059  0.15218319  0.11678876     0.13500
C2156       C  0.22648941  0.15858511  0.08601750    -0.20900
C2157       C  0.23870930  0.14991683  0.06617613    -0.07400
C2158       C  0.25009243  0.13611843  0.07851520     0.13500
C2159       C  0.26390581  0.12632161  0.05933700    -0.24200
H2160       H  0.25565747  0.11927681  0.11901116     0.14700
H2161       H  0.21826479  0.16968589  0.07730889     0.14800
C2162       C  0.20930639  0.16113337  0.13665994    -0.24200
H2163       H  0.27175680  0.11636745  0.07309949     0.05000
H2164       H  0.28026010  0.14257233  0.04753107     0.08200
H2165       H  0.25043405  0.11228687  0.04268211     0.08200
H2166       H  0.22193794  0.17269107  0.15552494     0.08200
H2167       H  0.19173503  0.14447385  0.14597407     0.08200
H2168       H  0.20331660  0.17322022  0.12400003     0.05000
C2169       C  0.19960518  0.10454435  0.35646982    -0.20800
C2170       C  0.21967497  0.11075347  0.37701249    -0.07400
C2171       C  0.24257636  0.11223697  0.36651918     0.13500
C2172       C  0.24521580  0.10896859  0.33544724    -0.20900
C2173       C  0.22571864  0.10474978  0.31483238    -0.07400
C2174       C  0.20238085  0.10177287  0.32566571     0.13500
C2175       C  0.18019618  0.09565134  0.30482168    -0.24200
H2176       H  0.18177905  0.10272265  0.36444034     0.14700
H2177       H  0.26294204  0.11085023  0.32703433     0.14800
C2178       C  0.26465734  0.11844481  0.38748612    -0.24200
H2179       H  0.16294409  0.09250331  0.31741537     0.05000
H2180       H  0.17493314  0.07793600  0.29198545     0.08200
H2181       H  0.18545829  0.11180524  0.28890337     0.08200
H2182       H  0.25856887  0.10331870  0.40509717     0.08200
H2183       H  0.27120196  0.13725733  0.39832714     0.08200
H2184       H  0.28123998  0.11953260  0.37528897     0.05000
C2185       C  0.44564361  0.63241781  0.10672128    -0.20800
C2186       C  0.44527999  0.61280457  0.08919112    -0.07400
C2187       C  0.45917062  0.61956949  0.06158118     0.13500
C2188       C  0.47459261  0.64547965  0.05388751    -0.20900
C2189       C  0.47655243  0.66497872  0.07261067    -0.07400
C2190       C  0.46119330  0.65848600  0.09870815     0.13500
C2191       C  0.46212397  0.67899521  0.11867847    -0.24200
H2192       H  0.43482722  0.62746610  0.12759439     0.14700
H2193       H  0.48611385  0.65067467  0.03351155     0.14800
C2194       C  0.45812062  0.59988395  0.03985344    -0.24200
H2195       H  0.44924415  0.67069804  0.13850748     0.05000
H2196       H  0.45600836  0.69078949  0.10563330     0.08200
H2197       H  0.48195331  0.69151428  0.12704505     0.08200
H2198       H  0.43788987  0.58598800  0.03416445     0.08200
H2199       H  0.46757026  0.58977440  0.04966853     0.08200
H2200       H  0.46818728  0.60881392  0.01836517     0.05000
C2201       C  0.28816537  0.48351799  0.04733253    -0.20800
C2202       C  0.27524414  0.49517011  0.05994215    -0.07400
C2203       C  0.28885948  0.51633974  0.07929917     0.13500
C2204       C  0.31463426  0.52433196  0.08656493    -0.20900
C2205       C  0.32668811  0.51111222  0.07567962    -0.07400
C2206       C  0.31327095  0.49071051  0.05517400     0.13500
C2207       C  0.32399998  0.47520880  0.04140405    -0.24200
H2208       H  0.27811062  0.46748897  0.03211307     0.14700
H2209       H  0.32476519  0.53974516  0.10257356     0.14800
C2210       C  0.27596798  0.52939108  0.09381648    -0.24200
H2211       H  0.31201129  0.45481759  0.04833097     0.05000
H2212       H  0.34398252  0.48149737  0.04780276     0.08200
H2213       H  0.32344680  0.47642779  0.01639041     0.08200
H2214       H  0.25929707  0.51528995  0.10738288     0.08200
H2215       H  0.26932996  0.53786243  0.07613306     0.08200
H2216       H  0.28923458  0.54505138  0.10908086     0.05000
C2217       C  0.44288427  0.52579909  0.00713758    -0.20800
C2218       C  0.42272060  0.52640241  0.02229199    -0.07400
C2219       C  0.40797834  0.53502660  0.00648548     0.13500
C2220       C  0.41558118  0.54558152  0.47561479    -0.20900
C2221       C  0.43551593  0.54479468  0.46037124    -0.07400
C2222       C  0.44975785  0.53545244  0.47603669     0.13500
C2223       C  0.47180585  0.53470585  0.46123465    -0.24200
H2224       H  0.45442917  0.51957614  0.01934775     0.14700
H2225       H  0.40462166  0.55278536  0.46396063     0.14800
C2226       C  0.38755234  0.53847719  0.02165232    -0.24200
H2227       H  0.48131218  0.52767794  0.47702682     0.05000
H2228       H  0.48637396  0.55425034  0.45358546     0.08200
H2229       H  0.46476533  0.52160719  0.44156884     0.08200
H2230       H  0.39544017  0.55049811  0.04210630     0.08200
H2231       H  0.37119808  0.51964510  0.02789463     0.08200
H2232       H  0.37995932  0.54792791  0.00659424     0.05000
C2233       C  0.45930616  0.55975072  0.21951979    -0.20800
C2234       C  0.43857700  0.56251733  0.20975265    -0.07400
C2235       C  0.42550583  0.56921360  0.23129482     0.13500
C2236       C  0.43281424  0.57183428  0.26173132    -0.20900
C2237       C  0.45294498  0.56833772  0.27149479    -0.07400
C2238       C  0.46662535  0.56254478  0.25015106     0.13500
C2239       C  0.48808708  0.55810349  0.25978200    -0.24200
H2240       H  0.46924567  0.55446183  0.20332460     0.14700
H2241       H  0.42267588  0.57667845  0.27819396     0.14800
C2242       C  0.40402763  0.57407052  0.22272691    -0.24200
H2243       H  0.49589111  0.55255213  0.24043238     0.05000
H2244       H  0.48094132  0.54245852  0.27687205     0.08200
H2245       H  0.50403555  0.57588771  0.26960760     0.08200
H2246       H  0.38678285  0.55596978  0.21571036     0.08200
H2247       H  0.41037718  0.58845242  0.20417964     0.08200
H2248       H  0.39814270  0.58165406  0.24199261     0.05000
C2249       C  0.66064544  0.49066533  0.13554013    -0.20800
C2250       C  0.66840870  0.48603826  0.16352422    -0.07400
C2251       C  0.65173121  0.46339682  0.17970397     0.13500
C2252       C  0.62643206  0.44759743  0.16919378    -0.20900
C2253       C  0.61776043  0.45414340  0.14299553    -0.07400
C2254       C  0.63562960  0.47497667  0.12492658     0.13500
C2255       C  0.62840151  0.48127832  0.09469146    -0.24200
H2256       H  0.67373507  0.50774839  0.12290496     0.14700
H2257       H  0.61289966  0.43139094  0.18271429     0.14800
C2258       C  0.65992695  0.45691264  0.20905576    -0.24200
H2259       H  0.64535896  0.49674832  0.08276414     0.05000
H2260       H  0.61447686  0.48800233  0.09739664     0.08200
H2261       H  0.62004139  0.46406153  0.08015043     0.08200
H2262       H  0.66508162  0.47241613  0.22571597     0.08200
H2263       H  0.67682211  0.45459675  0.20509923     0.08200
H2264       H  0.64441391  0.43876428  0.21895497     0.05000
C2265       C  0.55516309  0.43674782  0.23859183    -0.20800
C2266       C  0.53350194  0.43715385  0.22808595    -0.07400
C2267       C  0.51692828  0.43917973  0.24889799     0.13500
C2268       C  0.52335111  0.44210825  0.27980079    -0.20900
C2269       C  0.54530425  0.44191541  0.29040645    -0.07400
C2270       C  0.56106446  0.43845139  0.26928567     0.13500
C2271       C  0.58429638  0.43653085  0.27811965    -0.24200
H2272       H  0.56743637  0.43457923  0.22246894     0.14700
H2273       H  0.51103917  0.44433002  0.29575935     0.14800
C2274       C  0.49293615  0.43890147  0.23863423    -0.24200
H2275       H  0.59415993  0.43433104  0.25819949     0.05000
H2276       H  0.57844334  0.41947155  0.29274256     0.08200
H2277       H  0.59854227  0.45409769  0.28985615     0.08200
H2278       H  0.47953264  0.42016186  0.22817285     0.08200
H2279       H  0.49788856  0.45451061  0.22193161     0.08200
H2280       H  0.48278454  0.44170819  0.25779321     0.05000
C2281       C  0.57312736  0.45676451  0.48961554    -0.20800
C2282       C  0.56182872  0.47022190  0.47804057    -0.07400
C2283       C  0.55387611  0.48204114  0.99881446     0.13500
C2284       C  0.55251328  0.47562638  0.02965813    -0.20900
C2285       C  0.55911771  0.45750963  0.03993739    -0.07400
C2286       C  0.56829523  0.44639963  0.01859317     0.13500
C2287       C  0.57599764  0.42680868  0.02669290    -0.24200
H2288       H  0.58311986  0.45084002  0.47428051     0.14700
H2289       H  0.54575791  0.48442444  0.04564505     0.14800
C2290       C  0.53817994  0.49455272  0.48542372    -0.24200
H2291       H  0.58250912  0.42058987  0.00672117     0.05000
H2292       H  0.55937197  0.40937364  0.03635590     0.08200
H2293       H  0.59223927  0.43506959  0.04286934     0.08200
H2294       H  0.52310566  0.48300674  0.46856300     0.08200
H2295       H  0.55324256  0.51237173  0.47443634     0.08200
H2296       H  0.53983625  0.50827076  0.00758832     0.05000
C2297       C  0.46208778  0.33214360  0.07020392    -0.20800
C2298       C  0.47741565  0.35785917  0.06145304    -0.07400
C2299       C  0.48140359  0.36416088  0.03033771     0.13500
C2300       C  0.47264872  0.34440737  0.00907789    -0.20900
C2301       C  0.46013106  0.31860884  0.01819026    -0.07400
C2302       C  0.45361504  0.31237300  0.04898322     0.13500
C2303       C  0.43830216  0.28499258  0.05977112    -0.24200
H2304       H  0.45872960  0.32734214  0.09402526     0.14700
H2305       H  0.47713366  0.34928418  0.98540389     0.14800
C2306       C  0.49536094  0.39144457  0.01888505    -0.24200
H2307       H  0.43349156  0.28378101  0.08414256     0.05000
H2308       H  0.44382148  0.27537164  0.55627565     0.08200
H2309       H  0.42003830  0.27487188  0.04691287     0.08200
H2310       H  0.50002988  0.40565864  0.03708221     0.08200
H2311       H  0.48304662  0.39418329  0.00231860     0.08200
H2312       H  0.51340921  0.39548280  0.00751538     0.05000
C2313       C  0.45117990  0.44125344  0.12284683    -0.20800
C2314       C  0.47734118  0.45615377  0.13046511    -0.07400
C2315       C  0.48732775  0.48257777  0.13714367     0.13500
C2316       C  0.47114428  0.49295987  0.13574402    -0.20900
C2317       C  0.44519341  0.47826253  0.12765244    -0.07400
C2318       C  0.43502735  0.45189219  0.12127726     0.13500
C2319       C  0.40716613  0.43464150  0.11333699    -0.24200
H2320       H  0.44323160  0.42107913  0.11803074     0.14700
H2321       H  0.47916911  0.51317029  0.14044654     0.14800
C2322       C  0.51504361  0.50055546  0.14559313    -0.24200
H2323       H  0.40228000  0.41437613  0.11091146     0.05000
H2324       H  0.40275522  0.44070175  0.09148676     0.08200
H2325       H  0.39485479  0.43538277  0.13142058     0.08200
H2326       H  0.52785208  0.50138811  0.12713261     0.08200
H2327       H  0.51973049  0.49413061  0.16701944     0.08200
H2328       H  0.51915733  0.52045744  0.14928490     0.05000
C2329       C  0.49054504  0.30409078  0.20676379    -0.20800
C2330       C  0.49166174  0.28650808  0.18714709    -0.07400
C2331       C  0.50269151  0.29492442  0.15836196     0.13500
C2332       C  0.51164194  0.32052037  0.14960268    -0.20900
C2333       C  0.50943454  0.33798729  0.16868763    -0.07400
C2334       C  0.49929970  0.32963632  0.19813950     0.13500
C2335       C  0.49725680  0.34715325  0.22070399    -0.24200
H2336       H  0.48183286  0.29748535  0.22872464     0.14700
H2337       H  0.51923616  0.32648221  0.12700035     0.14800
C2338       C  0.50348090  0.27653232  0.13615799    -0.24200
H2339       H  0.49061288  0.33773880  0.24311314     0.05000
H2340       H  0.48314082  0.35259655  0.21281804     0.08200
H2341       H  0.51632784  0.36458160  0.22393483     0.08200
H2342       H  0.48370022  0.26062490  0.13158815     0.08200
H2343       H  0.51511402  0.26854675  0.14556409     0.08200
H2344       H  0.51214710  0.28605955  0.11431559     0.05000
C2345       C  0.19093703  0.50824058  0.29184179    -0.20800
C2346       C  0.21052106  0.51082061  0.31135441    -0.07400
C2347       C  0.21493286  0.52478902  0.33845546     0.13500
C2348       C  0.19847317  0.53415303  0.34607941    -0.20900
C2349       C  0.17723865  0.52903704  0.32794284    -0.07400
C2350       C  0.17416420  0.51695454  0.29982035     0.13500
C2351       C  0.15292616  0.51276821  0.27836335    -0.24200
H2352       H  0.18779459  0.49795564  0.27089926     0.14700
H2353       H  0.20077443  0.54329584  0.36778194     0.14800
C2354       C  0.23518640  0.52834475  0.36109171    -0.24200
H2355       H  0.15374494  0.50356629  0.25707652     0.05000
H2356       H  0.15481578  0.53150753  0.27241485     0.08200
H2357       H  0.13390561  0.50019274  0.28879634     0.08200
H2358       H  0.24848650  0.54913414  0.36468004     0.08200
H2359       H  0.24669719  0.51967406  0.35402206     0.08200
H2360       H  0.22590078  0.51938775  0.38293012     0.05000
C2361       C  0.24274736  0.44535238  0.41764916    -0.20800
C2362       C  0.22188183  0.43728054  0.39784562    -0.07400
C2363       C  0.19681700  0.42696202  0.40979563     0.13500
C2364       C  0.19352346  0.42624540  0.44125006    -0.20900
C2365       C  0.21466298  0.43608550  0.46078960    -0.07400
C2366       C  0.23950261  0.44534838  0.44893880     0.13500
C2367       C  0.26269683  0.45588326  0.46921624    -0.24200
H2368       H  0.26190197  0.45296765  0.40852238     0.14700
H2369       H  0.17455704  0.41949061  0.45054660     0.14800
C2370       C  0.17351211  0.41665884  0.38967941    -0.24200
H2371       H  0.28053636  0.46148962  0.45632171     0.05000
H2372       H  0.26017425  0.44112139  0.48611963     0.08200
H2373       H  0.26523855  0.47318921  0.48094118     0.08200
H2374       H  0.17270529  0.40151844  0.37482860     0.08200
H2375       H  0.17423600  0.43230694  0.37566151     0.08200
H2376       H  0.15547467  0.40814172  0.40299971     0.05000
C2377       C  0.20903130  0.42834608  0.19324629    -0.20800
C2378       C  0.20455686  0.44538840  0.20983679    -0.07400
C2379       C  0.19259798  0.45774200  0.19568998     0.13500
C2380       C  0.18561224  0.45289689  0.16512100    -0.20900
C2381       C  0.19122144  0.43681059  0.14809995    -0.07400
C2382       C  0.20303511  0.42430089  0.16236992     0.13500
C2383       C  0.20943345  0.40671862  0.14529193    -0.24200
H2384       H  0.21838227  0.41908257  0.20420050     0.14700
H2385       H  0.17677035  0.46262783  0.15408675     0.14800
C2386       C  0.18700337  0.47586082  0.21277156    -0.24200
H2387       H  0.21740146  0.39765747  0.16041291     0.05000
H2388       H  0.22405914  0.41762307  0.12773916     0.08200
H2389       H  0.19187839  0.39121076  0.13454985     0.08200
H2390       H  0.20516488  0.49259254  0.22067881     0.08200
H2391       H  0.17457991  0.46568671  0.23243220     0.08200
H2392       H  0.17689476  0.48322758  0.19848207     0.05000
C2393       C  0.29846134  0.45740857  0.20410288    -0.20800
C2394       C  0.30782128  0.46489466  0.23355864    -0.07400
C2395       C  0.33437984  0.47525766  0.23932715     0.13500
C2396       C  0.35112651  0.48031811  0.21491469    -0.20900
C2397       C  0.34187853  0.47510999  0.18521394    -0.07400
C2398       C  0.31520450  0.46246253  0.17984324     0.13500
C2399       C  0.30452881  0.45577615  0.14824292    -0.24200
H2400       H  0.27807086  0.44896832  0.19980089     0.14700
H2401       H  0.37168446  0.49039257  0.21874591     0.14800
C2402       C  0.34548404  0.48286800  0.27065283    -0.24200
H2403       H  0.28321204  0.44535330  0.14813726     0.05000
H2404       H  0.31092267  0.44334684  0.13755380     0.08200
H2405       H  0.31131486  0.47347598  0.13454532     0.08200
H2406       H  0.33737268  0.46569441  0.28553713     0.08200
H2407       H  0.34096784  0.49711312  0.28009831     0.08200
H2408       H  0.36668390  0.49157899  0.27067266     0.05000
C2409       C  0.33204261  0.51922738  0.36768218    -0.20800
C2410       C  0.32575698  0.52252270  0.33795828    -0.07400
C2411       C  0.34467960  0.54370706  0.32079786     0.13500
C2412       C  0.36953025  0.55911040  0.33278777    -0.20900
C2413       C  0.37619796  0.55407073  0.36126078    -0.07400
C2414       C  0.35689208  0.53464158  0.37947378     0.13500
C2415       C  0.36248796  0.53001200  0.41142211    -0.24200
H2416       H  0.31771856  0.50380883  0.38149309     0.14700
H2417       H  0.38437705  0.57407105  0.31895998     0.14800
C2418       C  0.33960817  0.54989744  0.28934021    -0.24200
H2419       H  0.34496209  0.51502534  0.42298002     0.05000
H2420       H  0.37006046  0.54798610  0.42457305     0.08200
H2421       H  0.37676311  0.52355852  0.41164049     0.08200
H2422       H  0.35651608  0.56721900  0.27987212     0.08200
H2423       H  0.32344003  0.55374549  0.28979415     0.08200
H2424       H  0.33511651  0.53381628  0.27382977     0.05000
C2425       C  0.01190707  0.15834770  0.23225599    -0.20800
C2426       C  0.99408327  0.15718002  0.25363663    -0.07400
C2427       C  0.00244093  0.16399913  0.28394170     0.13500
C2428       C  0.02842156  0.17318308  0.29131047    -0.20900
C2429       C  0.04656757  0.17679134  0.26918264    -0.07400
C2430       C  0.03801394  0.16864639  0.23943017     0.13500
C2431       C  0.05642567  0.17099544  0.21508057    -0.24200
H2432       H  0.00580249  0.15280725  0.20911484     0.14700
H2433       H  0.03491265  0.17904647  0.31418282     0.14800
C2434       C  0.98436551  0.16196881  0.30866120    -0.24200
H2435       H  0.04649819  0.16310284  0.19325082     0.05000
H2436       H  0.06609441  0.16021545  0.22193592     0.08200
H2437       H  0.07094061  0.19145794  0.21131371     0.08200
H2438       H  0.96755988  0.14223084  0.30945904     0.08200
H2439       H  0.97783297  0.17595830  0.30472158     0.08200
H2440       H  0.99379127  0.16621911  0.33117953     0.05000
C2441       C  0.20143767  0.33112459  0.27346139    -0.20800
C2442       C  0.18319049  0.31589815  0.29553213    -0.07400
C2443       C  0.17990931  0.32817819  0.32089192     0.13500
C2444       C  0.19391534  0.35503991  0.32270388    -0.20900
C2445       C  0.21141385  0.37024360  0.30017364    -0.07400
C2446       C  0.21549072  0.35809832  0.27539752     0.13500
C2447       C  0.23362644  0.37348127  0.25027859    -0.24200
H2448       H  0.20414853  0.32193036  0.25402099     0.14700
H2449       H  0.19099344  0.36435731  0.34188845     0.14800
C2450       C  0.16216984  0.31327122  0.34658364    -0.24200
H2451       H  0.23380787  0.36097632  0.23210935     0.05000
H2452       H  0.25344433  0.38488242  0.25925260     0.08200
H2453       H  0.22770129  0.38658634  0.24010898     0.08200
H2454       H  0.16732585  0.29925911  0.35567073     0.08200
H2455       H  0.14193914  0.30313989  0.33876971     0.08200
H2456       H  0.16355075  0.32596257  0.36542813     0.05000
C2457       C  0.13694481  0.13975991  0.25313637    -0.20800
C2458       C  0.15112664  0.16626234  0.24703995    -0.07400
C2459       C  0.17315036  0.17573773  0.22826164     0.13500
C2460       C  0.18186170  0.15934782  0.21947375    -0.20900
C2461       C  0.16940305  0.13347761  0.22807463    -0.07400
C2462       C  0.14569060  0.12313180  0.24359619     0.13500
C2463       C  0.12993466  0.09499713  0.25092116    -0.24200
H2464       H  0.11981258  0.13226666  0.26689040     0.14700
H2465       H  0.19925879  0.16731583  0.20610323     0.14800
C2466       C  0.18882867  0.20308818  0.21709906    -0.24200
H2467       H  0.11215273  0.09038499  0.26336964     0.05000
H2468       H  0.14112878  0.08895746  0.26515089     0.08200
H2469       H  0.12422561  0.08377509  0.22969093     0.08200
H2470       H  0.20839869  0.21210434  0.22700463     0.08200
H2471       H  0.18053860  0.21522372  0.22219088     0.08200
H2472       H  0.19047272  0.20315525  0.19210896     0.05000
C2473       C  0.20164823  0.21851957  0.40738620    -0.20800
C2474       C  0.21059748  0.20184479  0.39981367    -0.07400
C2475       C  0.21228563  0.19667448  0.36911904     0.13500
C2476       C  0.20323322  0.20682594  0.34683936    -0.20900
C2477       C  0.19191494  0.22139357  0.35464056    -0.07400
C2478       C  0.19191552  0.22807892  0.38510423     0.13500
C2479       C  0.17951607  0.24324993  0.39433544    -0.24200
H2480       H  0.20001014  0.22208648  0.43101464     0.14700
H2481       H  0.20282763  0.20142737  0.32343670     0.14800
C2482       C  0.22186333  0.17897353  0.35995874    -0.24200
H2483       H  0.18111926  0.24685549  0.41903924     0.05000
H2484       H  0.15884837  0.23238752  0.38840454     0.08200
H2485       H  0.18882933  0.26201698  0.38239497     0.08200
H2486       H  0.20871999  0.15944820  0.36871095     0.08200
H2487       H  0.24143352  0.18601915  0.36916935     0.08200
H2488       H  0.22270176  0.17767820  0.33501114     0.05000
C2489       C  0.13569581  0.26133083  0.17400399    -0.20800
C2490       C  0.13428180  0.24066381  0.19043128    -0.07400
C2491       C  0.12526353  0.21679492  0.17580186     0.13500
C2492       C  0.11749431  0.21412818  0.14553782    -0.20900
C2493       C  0.11874998  0.23465318  0.12924085    -0.07400
C2494       C  0.12813010  0.25859782  0.14346329     0.13500
C2495       C  0.12878792  0.28074235  0.12690270    -0.24200
H2496       H  0.14232364  0.27950087  0.18523189     0.14700
H2497       H  0.10981878  0.19567341  0.13460160     0.14800
C2498       C  0.12257121  0.19359864  0.19218965    -0.24200
H2499       H  0.13631466  0.29803953  0.14132230     0.05000
H2500       H  0.10902743  0.27527828  0.11974502     0.08200
H2501       H  0.14127119  0.28569750  0.10669299     0.08200
H2502       H  0.11141793  0.19012730  0.21326606     0.08200
H2503       H  0.14177117  0.19668968  0.19776186     0.08200
H2504       H  0.11269295  0.17602101  0.17821318     0.05000
C2505       C  0.12183101  0.24977298  0.39608331    -0.20800
C2506       C  0.10127489  0.23257128  0.37806240    -0.07400
C2507       C  0.07640421  0.21954429  0.39030181     0.13500
C2508       C  0.07275769  0.22328036  0.42071023    -0.20900
C2509       C  0.09347837  0.23964313  0.43954836    -0.07400
C2510       C  0.11842089  0.25351441  0.42664170     0.13500
C2511       C  0.14173738  0.27198108  0.44455731    -0.24200
H2512       H  0.14083762  0.25992773  0.38626189     0.14700
H2513       H  0.05354969  0.21261971  0.42994978     0.14800
C2514       C  0.05382793  0.20109785  0.37153795    -0.24200
H2515       H  0.15926840  0.28142726  0.43032408     0.05000
H2516       H  0.13880993  0.28727688  0.45410219     0.08200
H2517       H  0.14541580  0.26165907  0.46295990     0.08200
H2518       H  0.05696611  0.18556547  0.36325707     0.08200
H2519       H  0.05163404  0.21149961  0.35203926     0.08200
H2520       H  0.03566341  0.19216050  0.38463753     0.05000
O2521       O  0.13191627  0.25342774  0.74004473    -0.85900
O2522       O  0.08837197  0.21351450  0.76298051    -0.82900
C2523       C  0.07476873  0.19142265  0.77387418     0.97600
O2524       O  0.08380676  0.18302831  0.79381254    -0.83000
O2525       O  0.12484088  0.17790227  0.77172765    -0.85600
C2526       C  0.14727389  0.18406209  0.76339318     1.02100
O2527       O  0.16583346  0.20535634  0.77145299    -0.78400
O2528       O  0.15427476  0.23414132  0.73336436    -0.78600
C2529       C  0.14079526  0.24294901  0.72281682     1.02100
O2530       O  0.14573092  0.27435939  0.80138490    -0.85900
O2531       O  0.10148825  0.23459067  0.82355359    -0.82900
C2532       C  0.10509933  0.22419910  0.84661492     0.97600
O2533       O  0.11473105  0.20997164  0.84451247    -0.83000
O2534       O  0.15310499  0.20192177  0.82692056    -0.85600
C2535       C  0.17354288  0.22277194  0.83291552     1.02100
O2536       O  0.18030769  0.24277071  0.81715895    -0.78400
O2537       O  0.17648202  0.27593949  0.77452028    -0.78500
C2538       C  0.16780300  0.28718663  0.79030381     1.02000
Cr2539     Cr  0.11824229  0.24263662  0.78252026     1.93700
Cr2540     Cr  0.12017485  0.19547564  0.80747816     1.93200
Cr2541     Cr  0.16675405  0.23874224  0.77526624     1.39100
O2542       O  0.13480455  0.22563554  0.78865157    -1.23600
O2543       O  0.21413687  0.44682591  0.84822387    -0.85900
O2544       O  0.20596799  0.47137699  0.80048858    -0.82900
C2545       C  0.22098471  0.49464812  0.80692862     0.97600
O2546       O  0.24492843  0.50390071  0.80525337    -0.83000
O2547       O  0.29172267  0.50545405  0.80060431    -0.85600
C2548       C  0.29879409  0.50145033  0.82592601     1.02100
O2549       O  0.28567311  0.47992899  0.83876081    -0.78400
O2550       O  0.24250031  0.43427123  0.85408407    -0.78600
C2551       C  0.22580025  0.43895910  0.86493108     1.02100
O2552       O  0.20748458  0.40672893  0.81013217    -0.85900
O2553       O  0.20642471  0.43438498  0.76043437    -0.82900
C2554       C  0.21326736  0.45249967  0.74168198     0.97600
O2555       O  0.22867791  0.47537432  0.74943495    -0.83000
O2556       O  0.27295073  0.47340868  0.74890108    -0.85600
C2557       C  0.28835569  0.46575753  0.75563454     1.02100
O2558       O  0.28955633  0.45881906  0.78236581    -0.78400
O2559       O  0.24493220  0.41354091  0.79568578    -0.78500
C2560       C  0.22150084  0.39823438  0.80089155     1.02000
Cr2561     Cr  0.21108073  0.44121262  0.80435357     1.93700
Cr2562     Cr  0.25852706  0.48737574  0.77798153     1.93200
Cr2563     Cr  0.26408165  0.44747647  0.81641212     1.39100
O2564       O  0.24479827  0.45883800  0.79988001    -1.23600
O2565       O  0.54590044  0.44928512  0.67838858    -0.85900
O2566       O  0.57937667  0.45926274  0.63203076    -0.82900
C2567       C  0.58868054  0.44520902  0.63842860     0.97600
O2568       O  0.57421250  0.42115175  0.63884814    -0.83000
O2569       O  0.52933778  0.37312737  0.63233354    -0.85600
C2570       C  0.51641588  0.36504484  0.65633119     1.02100
O2571       O  0.50690009  0.37738625  0.66804726    -0.78400
O2572       O  0.50483172  0.42033992  0.68390787    -0.78600
C2573       C  0.52665045  0.43600894  0.69503122     1.02100
O2574       O  0.51276358  0.45608355  0.63977856    -0.85900
O2575       O  0.54227907  0.45771432  0.59017392    -0.82900
C2576       C  0.55406793  0.45069901  0.57253618     0.97600
O2577       O  0.56222731  0.43650038  0.58254741    -0.83000
O2578       O  0.51729158  0.39164302  0.57958681    -0.85600
C2579       C  0.49372940  0.37693268  0.58447435     1.02100
O2580       O  0.48407264  0.37565641  0.61028214    -0.78400
O2581       O  0.48217925  0.41903168  0.62482863    -0.78500
C2582       C  0.49045648  0.44245168  0.62964752     1.02000
Cr2583     Cr  0.54380818  0.45306235  0.63465457     1.93700
Cr2584     Cr  0.54445626  0.40654587  0.61027956     1.93200
Cr2585     Cr  0.49697384  0.39974482  0.64552935     1.39100
O2586       O  0.52820174  0.41944719  0.63039775    -1.23600
O2587       O  0.43653350  0.52881847  0.57315432    -0.85900
O2588       O  0.44297337  0.57297404  0.59524757    -0.82900
C2589       C  0.43410630  0.58729273  0.60105553     0.97600
O2590       O  0.41508380  0.57969845  0.61844844    -0.83000
O2591       O  0.36978290  0.54083726  0.59465941    -0.85600
C2592       C  0.35208868  0.51883158  0.58750899     1.02100
O2593       O  0.35316625  0.49941594  0.59590728    -0.78400
O2594       O  0.39512425  0.50820848  0.56245691    -0.78600
C2595       C  0.41825729  0.52112270  0.55403401     1.02100
O2596       O  0.43768391  0.51254317  0.63587519    -0.85900
O2597       O  0.44402657  0.55739822  0.65752711    -0.82900
C2598       C  0.42845352  0.55579289  0.67791017     0.97600
O2599       O  0.40562438  0.54880000  0.67142395    -0.83000
O2600       O  0.35993308  0.51267622  0.65092600    -0.85600
C2601       C  0.35816774  0.49158857  0.65879344     1.02100
O2602       O  0.37102727  0.48311181  0.64557137    -0.78400
O2603       O  0.40895350  0.48343475  0.60681204    -0.78500
C2604       C  0.42858540  0.49124783  0.62312652     1.02000
Cr2605     Cr  0.43758077  0.54176577  0.61574289     1.93700
Cr2606     Cr  0.38897132  0.54428836  0.63242316     1.93200
Cr2607     Cr  0.38377488  0.49592317  0.60395889     1.39100
O2608       O  0.40374556  0.52760526  0.61753568    -1.23600
O2609       O  0.24713561  0.14560690  0.51331815    -0.85900
O2610       O  0.20749631  0.10227532  0.99135667    -0.82900
C2611       C  0.18606473  0.08796840  0.97921227     0.97600
O2612       O  0.17737043  0.09662996  0.95919043    -0.83000
O2613       O  0.16748520  0.13349763  0.98380758    -0.85600
C2614       C  0.17132158  0.15492789  0.99281420     1.02100
O2615       O  0.19307460  0.17478605  0.98957433    -0.78400
O2616       O  0.22568954  0.16525500  0.52299603    -0.78600
C2617       C  0.23758616  0.15419378  0.53220022     1.02100
O2618       O  0.26586395  0.16236484  0.95227632    -0.85900
O2619       O  0.22730839  0.11687202  0.93030804    -0.82900
C2620       C  0.21725848  0.12121715  0.90747254     0.97600
O2621       O  0.20344626  0.13122872  0.91059572    -0.83000
O2622       O  0.19055413  0.16543445  0.93151552    -0.85600
C2623       C  0.21039251  0.18705793  0.92683170     1.02100
O2624       O  0.23044874  0.19442050  0.94253472    -0.78400
O2625       O  0.26560984  0.19116582  0.98133508    -0.78500
C2626       C  0.27764289  0.18410458  0.96437345     1.02000
Cr2627     Cr  0.23553959  0.13322779  0.97159345     1.93700
Cr2628     Cr  0.18704055  0.13278964  0.94806303     1.93200
Cr2629     Cr  0.22787258  0.17901936  0.98318725     1.39100
O2630       O  0.21677265  0.14817188  0.96758201    -1.23600
O2631       O  0.43496919  0.22309341  0.90558340    -0.85900
O2632       O  0.45621156  0.21269321  0.95495006    -0.82900
C2633       C  0.47989258  0.22605867  0.94898413     0.97600
O2634       O  0.49062168  0.25020461  0.94935758    -0.83000
O2635       O  0.49617433  0.29933446  0.95219604    -0.85600
C2636       C  0.49264581  0.30659438  0.92662299     1.02100
O2637       O  0.47131450  0.29377477  0.91362730    -0.78400
O2638       O  0.42475395  0.25304270  0.89821708    -0.78600
C2639       C  0.42913471  0.23596901  0.88809674     1.02100
O2640       O  0.39484557  0.21970911  0.94142221    -0.85900
O2641       O  0.41988269  0.21663389  0.99269271    -0.82900
C2642       C  0.43764735  0.22256654  0.51212656     0.97600
O2643       O  0.46097578  0.23745693  0.50537115    -0.83000
O2644       O  0.46320800  0.28281113  0.00346628    -0.85600
C2645       C  0.45719133  0.29924170  0.99584849     1.02100
O2646       O  0.45089451  0.30065847  0.96887139    -0.78400
O2647       O  0.40402311  0.25796925  0.95531966    -0.78500
C2648       C  0.38761346  0.23505250  0.94942965     1.02000
Cr2649     Cr  0.42793726  0.22055432  0.94907783     1.93700
Cr2650     Cr  0.47565788  0.26631109  0.97539203     1.93200
Cr2651     Cr  0.43837391  0.27472454  0.93546416     1.39100
O2652       O  0.44744861  0.25409778  0.95315057    -1.23600
O2653       O  0.57179556  0.12647432  0.90298464    -0.85900
O2654       O  0.52843196  0.08592450  0.92640522    -0.82900
C2655       C  0.52068514  0.09608015  0.94556523     0.97600
O2656       O  0.50767879  0.10619399  0.93761206    -0.83000
O2657       O  0.49689686  0.13793830  0.90491721    -0.85600
C2658       C  0.51631224  0.15948275  0.91043123     1.02100
O2659       O  0.53802185  0.16474455  0.90028361    -0.78400
O2660       O  0.57599093  0.15735575  0.87296121    -0.78600
C2661       C  0.58542256  0.14838841  0.89154340     1.02100
O2662       O  0.55602690  0.10749664  0.84224270    -0.85900
O2663       O  0.51174725  0.06759723  0.86484399    -0.82900
C2664       C  0.49008887  0.05530154  0.87713262     0.97600
O2665       O  0.48263636  0.06667322  0.89453832    -0.83000
O2666       O  0.47829723  0.10215400  0.85656590    -0.85600
C2667       C  0.48513505  0.12293778  0.84250292     1.02100
O2668       O  0.50644089  0.14283114  0.84796737    -0.78400
O2669       O  0.54135486  0.13186365  0.82466995    -0.78500
C2670       C  0.55158591  0.11839642  0.82036753     1.02000
Cr2671     Cr  0.54066265  0.09828474  0.88389630     1.93700
Cr2672     Cr  0.49373301  0.10398675  0.89702765     1.93200
Cr2673     Cr  0.53943362  0.14678384  0.86316355     1.39100
O2674       O  0.52483187  0.11637050  0.88132820    -1.23600
O2675       O  0.44180853  0.87406267  0.84212748    -0.85900
O2676       O  0.43901455  0.91386868  0.81833143    -0.82900
C2677       C  0.42118419  0.90262947  0.79899078     0.97600
O2678       O  0.39808708  0.89137476  0.80741218    -0.83000
O2679       O  0.35651797  0.86035877  0.84241604    -0.85600
C2680       C  0.35448334  0.83852419  0.84020142     1.02100
O2681       O  0.37142879  0.83443546  0.85125986    -0.78400
O2682       O  0.41850995  0.84509558  0.87592504    -0.78600
C2683       C  0.43468603  0.85277151  0.85457512     1.02100
O2684       O  0.44851056  0.89479795  0.90272167    -0.85900
O2685       O  0.44209703  0.93320812  0.87932539    -0.82900
C2686       C  0.43246175  0.94491459  0.86623049     0.97600
O2687       O  0.41335021  0.93295297  0.84893626    -0.83000
O2688       O  0.37393349  0.89875333  0.88813418    -0.85600
C2689       C  0.36073505  0.87895224  0.90419545     1.02100
O2690       O  0.36296339  0.85926677  0.90123898    -0.78400
O2691       O  0.41030141  0.87319573  0.92297999    -0.78500
C2692       C  0.43418402  0.88713467  0.92585428     1.02000
Cr2693     Cr  0.44024694  0.90257339  0.86103956     1.93700
Cr2694     Cr  0.38704360  0.89521167  0.84809846     1.93200
Cr2695     Cr  0.39208642  0.85523093  0.88612919     1.39100
O2696       O  0.40649396  0.88428065  0.86512398    -1.23600
O2697       O  0.20855016  0.13258741  0.71434133    -0.85900
O2698       O  0.22703535  0.11979848  0.76381981    -0.82900
C2699       C  0.23055125  0.10540845  0.78157676     0.97600
O2700       O  0.23687714  0.08969417  0.77147499    -0.83000
O2701       O  0.19078954  0.04963389  0.75202885    -0.85600
C2702       C  0.17030048  0.03759109  0.73699505     1.02100
O2703       O  0.16829812  0.04633200  0.71179447    -0.78400
O2704       O  0.17369646  0.09517905  0.71697470    -0.78600
C2705       C  0.18467918  0.11928015  0.71913323     1.02100
O2706       O  0.24613757  0.13053033  0.67728923    -0.85900
O2707       O  0.26907252  0.12456168  0.72945303    -0.82900
C2708       C  0.27626401  0.10954571  0.71991547     0.97600
O2709       O  0.25981542  0.08662964  0.71420773    -0.83000
O2710       O  0.21343155  0.04495904  0.69778668    -0.85600
C2711       C  0.20785182  0.04699252  0.67065432     1.02100
O2712       O  0.20332851  0.06445599  0.66283606    -0.78400
O2713       O  0.20557814  0.11076509  0.66367874    -0.78500
C2714       C  0.22899267  0.12600067  0.65776824     1.02000
Cr2715     Cr  0.23638832  0.12438620  0.72076548     1.93700
Cr2716     Cr  0.22484329  0.06955080  0.73250026     1.93200
Cr2717     Cr  0.18975642  0.08005378  0.69092100     1.39100
O2718       O  0.21689898  0.09109593  0.71479495    -1.23600
O2719       O  0.45636852  0.25157463  0.70375957    -0.85900
O2720       O  0.43356539  0.21897962  0.65560315    -0.82900
C2721       C  0.42780038  0.20011398  0.63862178     0.97600
O2722       O  0.42340422  0.17866078  0.64926434    -0.83000
O2723       O  0.46906348  0.18181646  0.66551618    -0.85600
C2724       C  0.49059061  0.19090886  0.67848479     1.02100
O2725       O  0.49462907  0.20326238  0.70270063    -0.78400
O2726       O  0.48990966  0.24723728  0.69736392    -0.78600
C2727       C  0.47958947  0.26101211  0.69637019     1.02100
O2728       O  0.42063216  0.21218032  0.74316506    -0.85900
O2729       O  0.39357260  0.18378492  0.69347464    -0.82900
C2730       C  0.38596244  0.16151938  0.70329968     0.97600
O2731       O  0.40175725  0.15391523  0.70730907    -0.83000
O2732       O  0.44742705  0.15654695  0.72174391    -0.85600
C2733       C  0.45500820  0.16500591  0.74811415     1.02100
O2734       O  0.46279010  0.18815560  0.75444446    -0.78400
O2735       O  0.46176380  0.23281491  0.75370991    -0.78500
C2736       C  0.43869401  0.22391989  0.76170221     1.02000
Cr2737     Cr  0.42753121  0.21544303  0.69937865     1.93700
Cr2738     Cr  0.43613146  0.17020671  0.68723280     1.93200
Cr2739     Cr  0.47512746  0.21672544  0.72505944     1.39100
O2740       O  0.44641993  0.20064039  0.70362648    -1.23600
O2741       O  0.08051520  0.88434394  0.53247661    -0.85900
O2742       O  0.11270942  0.89870823  0.98388709    -0.82900
C2743       C  0.13238336  0.91227081  0.96785126     0.97600
O2744       O  0.15375825  0.92801011  0.97999468    -0.83000
O2745       O  0.15127649  0.96914776  0.50104886    -0.85600
C2746       C  0.14238918  0.98074715  0.51587507     1.02100
O2747       O  0.12948886  0.97070332  0.53959475    -0.78400
O2748       O  0.08492552  0.92253106  0.53137745    -0.78600
C2749       C  0.07087037  0.89853183  0.52885166     1.02100
O2750       O  0.11927513  0.88420654  0.57006642    -0.85900
O2751       O  0.14842591  0.89086461  0.51898919    -0.82900
C2752       C  0.17016169  0.90385634  0.53101923     0.97600
O2753       O  0.17792276  0.92678193  0.53819190    -0.83000
O2754       O  0.17533603  0.96930345  0.55673628    -0.85600
C2755       C  0.16635929  0.96680198  0.58320001     1.02100
O2756       O  0.14351827  0.94991546  0.58880347    -0.78400
O2757       O  0.09904825  0.90408058  0.58446255    -0.78500
C2758       C  0.10772555  0.88924163  0.59019993     1.02000
Cr2759     Cr  0.11665537  0.89205460  0.52699313     1.93700
Cr2760     Cr  0.16247868  0.94652265  0.52018230     1.93200
Cr2761     Cr  0.11540555  0.93597297  0.55886844     1.39100
O2762       O  0.13158809  0.92519077  0.53508197    -1.23600
O2763       O  0.21070044  0.75943507  0.55223934    -0.85900
O2764       O  0.22077477  0.79356004  0.59893089    -0.82900
C2765       C  0.23346916  0.81362144  0.61447386     0.97600
O2766       O  0.24877313  0.83520575  0.60234895    -0.83000
O2767       O  0.29287432  0.83606088  0.58517963    -0.85600
C2768       C  0.30492370  0.82574836  0.57478238     1.02100
O2769       O  0.29645936  0.81130855  0.55206221    -0.78400
O2770       O  0.24938460  0.76619263  0.55918769    -0.78600
C2771       C  0.22543663  0.75111905  0.55956962     1.02100
O2772       O  0.21050806  0.79588840  0.51096588    -0.85900
O2773       O  0.21175200  0.82491152  0.56070197    -0.82900
C2774       C  0.22371959  0.84678517  0.54900765     0.97600
O2775       O  0.24702190  0.85579000  0.54243729    -0.83000
O2776       O  0.29185596  0.85672803  0.52693707    -0.85600
C2777       C  0.29138101  0.84637797  0.50194819     1.02100
O2778       O  0.27777345  0.82246575  0.49852491    -0.78400
O2779       O  0.23266965  0.77804361  0.00126893    -0.78500
C2780       C  0.21784257  0.78585905  0.99187619     1.02000
Cr2781     Cr  0.21604037  0.79474580  0.55514958     1.93700
Cr2782     Cr  0.26851138  0.84335741  0.56309927     1.93200
Cr2783     Cr  0.26316268  0.79559522  0.52984557     1.39100
O2784       O  0.24968301  0.81145178  0.54964691    -1.23600
O2785       O  0.21241905  0.78445087  0.84578758    -0.85900
O2786       O  0.24298771  0.79333969  0.79666098    -0.82900
C2787       C  0.25145029  0.77824091  0.80152246     0.97600
O2788       O  0.23626979  0.75433664  0.80101157    -0.83000
O2789       O  0.19022742  0.70756541  0.79726357    -0.85600
C2790       C  0.18023810  0.70046758  0.82313205     1.02100
O2791       O  0.17339807  0.71394461  0.83750297    -0.78400
O2792       O  0.17172407  0.75663836  0.85449077    -0.78600
C2793       C  0.19433197  0.77176878  0.86401137     1.02100
O2794       O  0.17681751  0.79127403  0.81063086    -0.85900
O2795       O  0.20397671  0.79351988  0.75909795    -0.82900
C2796       C  0.21494244  0.78698110  0.73983044     0.97600
O2797       O  0.22190159  0.77101510  0.74694772    -0.83000
O2798       O  0.17559626  0.72730460  0.74750710    -0.85600
C2799       C  0.15297281  0.71135814  0.75520468     1.02100
O2800       O  0.14580509  0.70969361  0.78246649    -0.78400
O2801       O  0.14538476  0.75384943  0.79759410    -0.78500
C2802       C  0.15380867  0.77729106  0.80229773     1.02000
Cr2803     Cr  0.20771764  0.78817382  0.80268426     1.93700
Cr2804     Cr  0.20501947  0.74103366  0.77518564     1.93200
Cr2805     Cr  0.16133720  0.73514449  0.81658181     1.39100
O2806       O  0.19121463  0.75457980  0.79830772    -1.23600
O2807       O  0.10839856  0.88837740  0.73275638    -0.85900
O2808       O  0.12023855  0.92330184  0.77942880    -0.82900
C2809       C  0.10598756  0.93271531  0.77440585     0.97600
O2810       O  0.08193877  0.91889304  0.77680251    -0.83000
O2811       O  0.03371810  0.87499421  0.78553769    -0.85600
C2812       C  0.02465852  0.86263061  0.76145566     1.02100
O2813       O  0.03651000  0.85366221  0.74736516    -0.78400
O2814       O  0.07731987  0.84800722  0.72964863    -0.78600
C2815       C  0.09415537  0.86868680  0.71717158     1.02100
O2816       O  0.11396532  0.85486051  0.77283978    -0.85900
O2817       O  0.11869421  0.88571334  0.82120107    -0.82900
C2818       C  0.11271260  0.89736980  0.84010998     0.97600
O2819       O  0.09889466  0.90661561  0.83209227    -0.83000
O2820       O  0.05328772  0.86172167  0.83589758    -0.85600
C2821       C  0.03621585  0.83886822  0.83054530     1.02100
O2822       O  0.03393648  0.82968864  0.80432590    -0.78400
O2823       O  0.07616944  0.82558331  0.78866717    -0.78500
C2824       C  0.09958168  0.83313264  0.78432667     1.02000
Cr2825     Cr  0.11274323  0.88702661  0.77707948     1.93700
Cr2826     Cr  0.06789910  0.88933528  0.80546266     1.93200
Cr2827     Cr  0.05783629  0.84171776  0.76862502     1.39100
O2828       O  0.07925101  0.87262354  0.78334211    -1.23600
O2829       O  0.89274749  0.45474998  0.68493296    -0.85900
O2830       O  0.86640433  0.42206322  0.63812346    -0.82900
C2831       C  0.84324558  0.41349573  0.64528086     0.97600
O2832       O  0.83432082  0.42847020  0.64621373    -0.83000
O2833       O  0.83285404  0.47443078  0.64180086    -0.85600
C2834       C  0.83930779  0.48778874  0.66546694     1.02100
O2835       O  0.86112067  0.49564355  0.67686886    -0.78400
O2836       O  0.90538255  0.49576168  0.69091636    -0.78600
C2837       C  0.89943183  0.47390329  0.70182261     1.02100
O2838       O  0.93177591  0.48789016  0.64467097    -0.85900
O2839       O  0.90159678  0.45910127  0.59591709    -0.82900
C2840       C  0.88230373  0.44822613  0.57856341     0.97600
O2841       O  0.86015510  0.44071018  0.58894931    -0.83000
O2842       O  0.86237369  0.48676571  0.58844981    -0.85600
C2843       C  0.87147931  0.51017392  0.59415730     1.02100
O2844       O  0.88090542  0.51923461  0.61979687    -0.78400
O2845       O  0.92559782  0.51900277  0.63142117    -0.78500
C2846       C  0.94064390  0.51049397  0.63512243     1.02000
Cr2847     Cr  0.89683892  0.45729018  0.64060620     1.93700
Cr2848     Cr  0.84971545  0.45873830  0.61827358     1.93200
Cr2849     Cr  0.89236593  0.50486066  0.65347598     1.39100
O2850       O  0.87946952  0.47375671  0.63778899    -1.23600
O2851       O  0.08383106  0.56321254  0.57447091    -0.85900
O2852       O  0.12246752  0.55833315  0.59831482    -0.82900
C2853       C  0.14400547  0.56553575  0.61008592     0.97600
O2854       O  0.15286186  0.58280628  0.63010081    -0.83000
O2855       O  0.16298363  0.63038583  0.60663058    -0.85600
C2856       C  0.15887298  0.64766722  0.59676995     1.02100
O2857       O  0.13704400  0.64556131  0.60015391    -0.78400
O2858       O  0.10574726  0.60442249  0.56388558    -0.78600
C2859       C  0.09470030  0.58137317  0.55534592     1.02100
O2860       O  0.06452309  0.56009476  0.63576202    -0.85900
O2861       O  0.10131328  0.55226072  0.65889457    -0.82900
C2862       C  0.11098754  0.56658963  0.68166519     0.97600
O2863       O  0.12582553  0.59024686  0.67854703    -0.83000
O2864       O  0.13818533  0.63715217  0.65842307    -0.85600
C2865       C  0.11784412  0.63797130  0.66295033     1.02100
O2866       O  0.09841320  0.62597097  0.64604528    -0.78400
O2867       O  0.06395151  0.58816407  0.60550517    -0.78500
C2868       C  0.05202690  0.56837570  0.62191221     1.02000
Cr2869     Cr  0.09451622  0.56113660  0.61716858     1.93700
Cr2870     Cr  0.14270169  0.60892408  0.64153492     1.93200
Cr2871     Cr  0.10206267  0.61449270  0.60523302     1.39100
O2872       O  0.11329228  0.59477036  0.62117092    -1.23600
O2873       O  0.78056245  0.56790131  0.90718433    -0.85900
O2874       O  0.74754025  0.54633802  0.95490141    -0.82900
C2875       C  0.73763349  0.52297992  0.94792510     0.97600
O2876       O  0.75117476  0.51240477  0.94875334    -0.83000
O2877       O  0.79440757  0.50642151  0.95537744    -0.85600
C2878       C  0.80674393  0.51003627  0.93115255     1.02100
O2879       O  0.81613392  0.53144572  0.91786040    -0.78400
O2880       O  0.82065778  0.57743654  0.90053468    -0.78600
C2881       C  0.79912633  0.57285944  0.88988761     1.02100
O2882       O  0.81648007  0.60802064  0.94389201    -0.85900
O2883       O  0.78706939  0.58202605  0.99456834    -0.82900
C2884       C  0.77779393  0.56507964  0.51362779     0.97600
O2885       O  0.76917491  0.54212652  0.50532035    -0.83000
O2886       O  0.80925347  0.53861947  0.00661287    -0.85600
C2887       C  0.83222939  0.54541529  0.00049073     1.02100
O2888       O  0.84112767  0.55274410  0.97414652    -0.78400
O2889       O  0.84533945  0.59882650  0.95894968    -0.78500
C2890       C  0.83878063  0.61519436  0.95339852     1.02000
Cr2891     Cr  0.78407371  0.57465392  0.95060595     1.93700
Cr2892     Cr  0.78125810  0.52667822  0.97680590     1.93200
Cr2893     Cr  0.82843258  0.56452542  0.93911243     1.39100
O2894       O  0.79810311  0.55515550  0.95529104    -1.23600
O2895       O  0.88383295  0.77555929  0.51434168    -0.85900
O2896       O  0.87057710  0.79171255  0.96682607    -0.82900
C2897       C  0.88384163  0.81510601  0.97350144     0.97600
O2898       O  0.90797131  0.82621101  0.97203769    -0.83000
O2899       O  0.95733636  0.83358353  0.96901831    -0.85600
C2900       C  0.96506590  0.82985853  0.99418953     1.02100
O2901       O  0.95347673  0.80789378  0.00617841    -0.78400
O2902       O  0.91216176  0.76308328  0.52058047    -0.78600
C2903       C  0.89697776  0.76974471  0.53146691     1.02100
O2904       O  0.87979738  0.73132667  0.97789887    -0.85900
O2905       O  0.87438898  0.75657492  0.92779893    -0.82900
C2906       C  0.88036739  0.77424681  0.90850899     0.97600
O2907       O  0.89533160  0.79755366  0.91544052    -0.83000
O2908       O  0.94295841  0.80230412  0.91622119    -0.85600
C2909       C  0.96015340  0.79728207  0.92376571     1.02100
O2910       O  0.96082689  0.78933754  0.95009862    -0.78400
O2911       O  0.91812926  0.74147611  0.96236742    -0.78500
C2912       C  0.89508533  0.72474608  0.96756693     1.02000
Cr2913     Cr  0.87975093  0.76424013  0.97164822     1.93700
Cr2914     Cr  0.92489445  0.81270085  0.94502917     1.93200
Cr2915     Cr  0.93462411  0.77530946  0.98340017     1.39100
O2916       O  0.91333137  0.78410756  0.96646911    -1.23600
O2917       O  0.90282373  0.79377108  0.74030893    -0.85900
O2918       O  0.85772158  0.75617656  0.76414239    -0.82900
C2919       C  0.85033363  0.76683048  0.78319354     0.97600
O2920       O  0.84050275  0.77991051  0.77422506    -0.83000
O2921       O  0.83321336  0.81315053  0.73755059    -0.85600
C2922       C  0.85374118  0.83443762  0.74013213     1.02100
O2923       O  0.87469222  0.83704903  0.73106102    -0.78400
O2924       O  0.90993704  0.82456498  0.70849025    -0.78600
C2925       C  0.91774708  0.81541282  0.72892415     1.02100
O2926       O  0.88715997  0.77298470  0.68005284    -0.85900
O2927       O  0.84085618  0.73710240  0.70296744    -0.82900
C2928       C  0.81946398  0.72638370  0.71596647     0.97600
O2929       O  0.81330886  0.73939969  0.73246903    -0.83000
O2930       O  0.81221446  0.77480917  0.69183383    -0.85600
C2931       C  0.82080312  0.79421062  0.67463906     1.02100
O2932       O  0.84271503  0.81367051  0.67898764    -0.78400
O2933       O  0.87572986  0.79900377  0.65975361    -0.78500
C2934       C  0.88433731  0.78402473  0.65713752     1.02000
Cr2935     Cr  0.87104448  0.76662482  0.72148732     1.93700
Cr2936     Cr  0.82721743  0.77751774  0.73270450     1.93200
Cr2937     Cr  0.87449898  0.81618358  0.69648046     1.39100
O2938       O  0.85782866  0.78688497  0.71695426    -1.23600
O2939       O  0.77879897  0.54722318  0.68341239    -0.85900
O2940       O  0.77425161  0.58570419  0.65764785    -0.82900
C2941       C  0.75625711  0.57404412  0.63869948     0.97600
O2942       O  0.73317180  0.56284083  0.64694747    -0.83000
O2943       O  0.69197302  0.53012124  0.68038140    -0.85600
C2944       C  0.69112274  0.50883832  0.67776623     1.02100
O2945       O  0.70843734  0.50554537  0.68933867    -0.78400
O2946       O  0.75513761  0.51802630  0.71691624    -0.78600
C2947       C  0.77263204  0.52667019  0.69719907     1.02100
O2948       O  0.78293458  0.56811316  0.74279590    -0.85900
O2949       O  0.77570696  0.60559426  0.71795142    -0.82900
C2950       C  0.76515517  0.61632389  0.70462900     0.97600
O2951       O  0.74586304  0.60347102  0.68797968    -0.83000
O2952       O  0.70681645  0.56793903  0.72640706    -0.85600
C2953       C  0.69344306  0.54745995  0.74119107     1.02100
O2954       O  0.69696804  0.52860287  0.73838225    -0.78400
O2955       O  0.74432606  0.54494088  0.76212621    -0.78500
C2956       C  0.76810407  0.55963230  0.76538535     1.02000
Cr2957     Cr  0.77522249  0.57516392  0.70076029     1.93700
Cr2958     Cr  0.72113905  0.56555819  0.68691346     1.93200
Cr2959     Cr  0.72746374  0.52654918  0.72494673     1.39100
O2960       O  0.74140382  0.55575295  0.70418847    -1.23600
O2961       O  0.54060895  0.41969998  0.88337330    -0.85900
O2962       O  0.54919452  0.45379831  0.92902159    -0.82900
C2963       C  0.56204550  0.47343289  0.94517602     0.97600
O2964       O  0.57655960  0.49531754  0.93354347    -0.83000
O2965       O  0.62027359  0.49429156  0.91916208    -0.85600
C2966       C  0.63348124  0.48555450  0.90795816     1.02100
O2967       O  0.62643700  0.47319497  0.88356336    -0.78400
O2968       O  0.57971794  0.42740107  0.89067851    -0.78600
C2969       C  0.55581947  0.41193393  0.89095642     1.02100
O2970       O  0.54049960  0.45584643  0.84046721    -0.85900
O2971       O  0.54062867  0.48535376  0.88873753    -0.82900
C2972       C  0.55418076  0.50785879  0.87875996     0.97600
O2973       O  0.57777549  0.51679032  0.87427811    -0.83000
O2974       O  0.62234281  0.51695911  0.86084252    -0.85600
C2975       C  0.62119851  0.50754377  0.83500644     1.02100
O2976       O  0.60693029  0.48386034  0.83047617    -0.78400
O2977       O  0.56328605  0.43746494  0.83366693    -0.78500
C2978       C  0.54889649  0.44519102  0.82302012     1.02000
Cr2979     Cr  0.54515839  0.45496843  0.88506405     1.93700
Cr2980     Cr  0.59769956  0.50332231  0.89574007     1.93200
Cr2981     Cr  0.59308308  0.45667860  0.86136540     1.39100
O2982       O  0.57891424  0.47188771  0.88091551    -1.23600
O2983       O  0.40940363  0.54783470  0.87535879    -0.85900
O2984       O  0.43836084  0.55763832  0.82356396    -0.82900
C2985       C  0.45657471  0.56967687  0.80505714     0.97600
O2986       O  0.47935759  0.58401918  0.81439770    -0.83000
O2987       O  0.48000680  0.62764138  0.83329053    -0.85600
C2988       C  0.47287598  0.64076874  0.84804994     1.02100
O2989       O  0.46324715  0.63351359  0.87404846    -0.78400
O2990       O  0.41683467  0.58705685  0.87167527    -0.78600
C2991       C  0.40135381  0.56320029  0.87069805     1.02100
O2992       O  0.44884453  0.54622305  0.90964200    -0.85900
O2993       O  0.47355168  0.54838186  0.85555089    -0.82900
C2994       C  0.49662826  0.56094781  0.86363886     0.97600
O2995       O  0.50621478  0.58444867  0.86959183    -0.83000
O2996       O  0.50840414  0.62987420  0.88643468    -0.85600
C2997       C  0.50204775  0.62901788  0.91384601     1.02100
O2998       O  0.47945520  0.61381173  0.92248797    -0.78400
O2999       O  0.43305304  0.57014652  0.92423244    -0.78500
C3000       C  0.43925687  0.55337898  0.93009327     1.02000
Cr3001     Cr  0.44398244  0.55258298  0.86644332     1.93700
Cr3002     Cr  0.49121929  0.60491593  0.85250405     1.93200
Cr3003     Cr  0.44903216  0.60008666  0.89603914     1.39100
O3004       O  0.46160754  0.58613266  0.87161718    -1.23600
O3005       O  0.52976113  0.77883337  0.56844526    -0.85900
O3006       O  0.56947171  0.77637223  0.59490113    -0.82900
C3007       C  0.56004495  0.75705559  0.61258930     0.97600
O3008       O  0.55055857  0.73480255  0.60180035    -0.83000
O3009       O  0.52225456  0.69537624  0.56215537    -0.85600
C3010       C  0.49968448  0.69173663  0.56338733     1.02100
O3011       O  0.49512385  0.70908095  0.55495161    -0.78400
O3012       O  0.50381385  0.75648161  0.53182948    -0.78600
C3013       C  0.50984113  0.77232037  0.55313926     1.02100
O3014       O  0.55531432  0.79000362  0.50982770    -0.85900
O3015       O  0.59338106  0.78532297  0.53567453    -0.82900
C3016       C  0.60582413  0.77614939  0.54784803     0.97600
O3017       O  0.59396222  0.75505189  0.56194357    -0.83000
O3018       O  0.56276376  0.71805487  0.51899526    -0.85600
C3019       C  0.54395227  0.70533828  0.50148224     1.02100
O3020       O  0.52315460  0.70545084  0.50470658    -0.78400
O3021       O  0.53128338  0.75188158  0.98747422    -0.78500
C3022       C  0.54505172  0.77586541  0.98610061     1.02000
Cr3023     Cr  0.56066092  0.77994245  0.55169354     1.93700
Cr3024     Cr  0.55654973  0.72745409  0.55997106     1.93200
Cr3025     Cr  0.51646349  0.73220368  0.52158308     1.39100
O3026       O  0.54455045  0.74665009  0.54443506    -1.23600
O3027       O  0.79185692  0.92063586  0.53723721    -0.85900
O3028       O  0.76696678  0.88631453  0.98974905    -0.82900
C3029       C  0.76041908  0.86751838  0.97238697     0.97600
O3030       O  0.75203824  0.84507547  0.98290574    -0.83000
O3031       O  0.79838931  0.84887461  0.49941230    -0.85600
C3032       C  0.81980465  0.85685137  0.51213929     1.02100
O3033       O  0.82397500  0.86755554  0.53770467    -0.78400
O3034       O  0.82398637  0.91371824  0.53375883    -0.78600
C3035       C  0.81551456  0.92901955  0.53298715     1.02100
O3036       O  0.75288800  0.88306560  0.57563454    -0.85900
O3037       O  0.72661004  0.85489587  0.52535912    -0.82900
C3038       C  0.71731443  0.83261374  0.53633073     0.97600
O3039       O  0.73209807  0.82401006  0.54197710    -0.83000
O3040       O  0.77673764  0.82341533  0.55549094    -0.85600
C3041       C  0.78338248  0.83124004  0.58227791     1.02100
O3042       O  0.79081304  0.85409112  0.58913979    -0.78400
O3043       O  0.79349353  0.90019283  0.58817058    -0.78500
C3044       C  0.77051670  0.89323549  0.59514862     1.02000
Cr3045     Cr  0.76128169  0.88557182  0.53203515     1.93700
Cr3046     Cr  0.76595735  0.83812497  0.52135792     1.93200
Cr3047     Cr  0.80599235  0.88281718  0.56022539     1.39100
O3048       O  0.77791312  0.86877279  0.53772353    -1.23600
O3049       O  0.87296147  0.09235981  0.71504169    -0.85900
O3050       O  0.88500496  0.12238513  0.76499607    -0.82900
C3051       C  0.89980958  0.13955208  0.78315210     0.97600
O3052       O  0.91571832  0.16201471  0.77385375    -0.83000
O3053       O  0.95666492  0.15787984  0.75505472    -0.85600
C3054       C  0.96839632  0.14909727  0.74043664     1.02100
O3055       O  0.95954181  0.13792875  0.71557418    -0.78400
O3056       O  0.90977350  0.09437020  0.72066363    -0.78600
C3057       C  0.88552403  0.08151411  0.72206204     1.02100
O3058       O  0.87678345  0.13302638  0.67841213    -0.85900
O3059       O  0.88100682  0.16023972  0.73156308    -0.82900
C3060       C  0.89612670  0.18284022  0.72299985     0.97600
O3061       O  0.91913200  0.18964765  0.71737076    -0.83000
O3062       O  0.96073824  0.18574394  0.70034249    -0.85600
C3063       C  0.95886020  0.17804006  0.67339413     1.02100
O3064       O  0.94253226  0.15531427  0.66624661    -0.78400
O3065       O  0.89599682  0.11154927  0.66609871    -0.78500
C3066       C  0.88156089  0.12046375  0.65930376     1.02000
Cr3067     Cr  0.88146245  0.12824540  0.72208435     1.93700
Cr3068     Cr  0.93626891  0.17153878  0.73524529     1.93200
Cr3069     Cr  0.92610166  0.12589260  0.69424979     1.39100
O3070       O  0.91493400  0.14212173  0.71726474    -1.23600
O3071       O  0.75724039  0.22188250  0.67859511    -0.85900
O3072       O  0.80180531  0.22844412  0.65577740    -0.82900
C3073       C  0.80740634  0.24693355  0.63772767     0.97600
O3074       O  0.81899335  0.26965727  0.64734352    -0.83000
O3075       O  0.82629120  0.30914593  0.68373504    -0.85600
C3076       C  0.80587941  0.31013883  0.68138597     1.02100
O3077       O  0.78478710  0.29184946  0.69090391    -0.78400
O3078       O  0.74902309  0.24245013  0.71312039    -0.78600
C3079       C  0.74141285  0.22583883  0.69234065     1.02100
O3080       O  0.77089024  0.21402426  0.73898188    -0.85900
O3081       O  0.81716670  0.22416816  0.71724670    -0.82900
C3082       C  0.83963262  0.23604035  0.70709542     0.97600
O3083       O  0.84634537  0.25533479  0.69010010    -0.83000
O3084       O  0.84739426  0.29184625  0.73005138    -0.85600
C3085       C  0.83883668  0.30282878  0.74672827     1.02100
O3086       O  0.81670075  0.29976663  0.74235348    -0.78400
O3087       O  0.78506908  0.25114595  0.76112940    -0.78500
C3088       C  0.77611074  0.22732440  0.76274511     1.02000
Cr3089     Cr  0.78792129  0.22479547  0.69808864     1.93700
Cr3090     Cr  0.83248422  0.27971609  0.68892223     1.93200
Cr3091     Cr  0.78498292  0.27021187  0.72497131     1.39100
O3092       O  0.80168704  0.25821312  0.70396182    -1.23600
O3093       O  0.11347558  0.21602534  0.51608911    -0.85900
O3094       O  0.10446904  0.25024263  0.98996773    -0.82900
C3095       C  0.08619968  0.23697653  0.97178362     0.97600
O3096       O  0.06351401  0.22436541  0.98162463    -0.83000
O3097       O  0.02518545  0.19595649  0.51850671    -0.85600
C3098       C  0.02450506  0.17475581  0.51720011     1.02100
O3099       O  0.04277133  0.17245605  0.52738563    -0.78400
O3100       O  0.09111379  0.18613873  0.54951990    -0.78600
C3101       C  0.10706382  0.19465655  0.52793390     1.02100
O3102       O  0.11980860  0.23805616  0.57560392    -0.85900
O3103       O  0.10884110  0.27324907  0.55153601    -0.82900
C3104       C  0.09754402  0.28325727  0.53824302     0.97600
O3105       O  0.07880754  0.26978958  0.52105885    -0.83000
O3106       O  0.04210209  0.23560867  0.56195689    -0.85600
C3107       C  0.03095879  0.21652124  0.57950815     1.02100
O3108       O  0.03451281  0.19757959  0.57749787    -0.78400
O3109       O  0.08262369  0.21317098  0.59739615    -0.78500
C3110       C  0.10638063  0.22832178  0.59909690     1.02000
Cr3111     Cr  0.10948071  0.24351185  0.53409632     1.93700
Cr3112     Cr  0.05464351  0.23164354  0.52217014     1.93200
Cr3113     Cr  0.06383768  0.19461255  0.56110534     1.39100
O3114       O  0.07606760  0.22319027  0.53931367    -1.23600
O3115       O  0.23808226  0.46107489  0.54903374    -0.85900
O3116       O  0.20658924  0.44167112  0.59797849    -0.82900
C3117       C  0.18824475  0.43762825  0.61513822     0.97600
O3118       O  0.16663709  0.43299345  0.60452536    -0.83000
O3119       O  0.16980606  0.47732971  0.58376094    -0.85600
C3120       C  0.17964220  0.49827373  0.56946094     1.02100
O3121       O  0.19221897  0.50121303  0.54563291    -0.78400
O3122       O  0.23568525  0.49580931  0.55291228    -0.78600
C3123       C  0.24879828  0.48481930  0.55387546     1.02100
O3124       O  0.19857157  0.42427604  0.51116752    -0.85900
O3125       O  0.17061020  0.40037638  0.56363032    -0.82900
C3126       C  0.14831168  0.39246156  0.55400338     0.97600
O3127       O  0.14127753  0.40823695  0.54712829    -0.83000
O3128       O  0.14461135  0.45309156  0.52814187    -0.85600
C3129       C  0.15370598  0.45961447  0.50172083     1.02100
O3130       O  0.17695564  0.46712985  0.49648253    -0.78400
O3131       O  0.21867265  0.46332658  0.99895571    -0.78500
C3132       C  0.20884828  0.44003295  0.99167535     1.02000
Cr3133     Cr  0.20230451  0.43326746  0.55486071     1.93700
Cr3134     Cr  0.15794589  0.44348579  0.56468608     1.93200
Cr3135     Cr  0.20508107  0.48026788  0.52571748     1.39100
O3136       O  0.18831874  0.45258771  0.54878245    -1.23600
O3137       O  0.86962559  0.45916990  0.88423925    -0.85900
O3138       O  0.88878507  0.44780563  0.93476054    -0.82900
C3139       C  0.89392695  0.43478664  0.95295224     0.97600
O3140       O  0.89986527  0.41854600  0.94348045    -0.83000
O3141       O  0.85488422  0.37641964  0.92512820    -0.85600
C3142       C  0.83407778  0.36405076  0.91091266     1.02100
O3143       O  0.83100302  0.37247381  0.88597463    -0.78400
O3144       O  0.83583789  0.42128652  0.89006095    -0.78600
C3145       C  0.84611948  0.44541423  0.89056511     1.02100
O3146       O  0.90761413  0.45601527  0.84844753    -0.85900
O3147       O  0.93089043  0.45298007  0.90169969    -0.82900
C3148       C  0.93919066  0.43866227  0.89307562     0.97600
O3149       O  0.92352249  0.41564746  0.88682316    -0.83000
O3150       O  0.87810194  0.37247942  0.87025765    -0.85600
C3151       C  0.87141739  0.37375845  0.84332901     1.02100
O3152       O  0.86477124  0.38984160  0.83610142    -0.78400
O3153       O  0.86690433  0.43572786  0.83554222    -0.78500
C3154       C  0.89037280  0.44957230  0.82855096     1.02000
Cr3155     Cr  0.89789576  0.45147492  0.89180889     1.93700
Cr3156     Cr  0.88850350  0.39746810  0.90500835     1.93200
Cr3157     Cr  0.85155942  0.40577678  0.86399239     1.39100
O3158       O  0.87917587  0.41789806  0.88708091    -1.23600
O3159       O  0.11784850  0.58089112  0.84851507    -0.85900
O3160       O  0.07855350  0.53771766  0.82442032    -0.82900
C3161       C  0.09016094  0.53134926  0.80552965     0.97600
O3162       O  0.10105408  0.51926272  0.81400119    -0.83000
O3163       O  0.13358499  0.51037370  0.84703432    -0.85600
C3164       C  0.15497583  0.53079781  0.84386877     1.02100
O3165       O  0.15856683  0.55155765  0.85496410    -0.78400
O3166       O  0.14736954  0.58681327  0.88160692    -0.78600
C3167       C  0.13912852  0.59529075  0.86079389     1.02100
O3168       O  0.09784381  0.56517045  0.90951801    -0.85900
O3169       O  0.06010045  0.52035747  0.88624014    -0.82900
C3170       C  0.04875153  0.49817338  0.87547905     0.97600
O3171       O  0.06037672  0.49177290  0.85690781    -0.83000
O3172       O  0.09582296  0.48838943  0.89399095    -0.85600
C3173       C  0.11616970  0.49528016  0.90874662     1.02100
O3174       O  0.13556255  0.51745210  0.90523389    -0.78400
O3175       O  0.12093679  0.54968040  0.92837043    -0.78500
C3176       C  0.10679991  0.55918255  0.93220851     1.02000
Cr3177     Cr  0.08994977  0.54984392  0.86742577     1.93700
Cr3178     Cr  0.09830352  0.50470974  0.85425950     1.93200
Cr3179     Cr  0.13834691  0.55035733  0.89086872     1.39100
O3180       O  0.10890317  0.53511194  0.87082273    -1.23600
O3181       O  0.76881567  0.89287236  0.73778452    -0.85900
O3182       O  0.79323634  0.88304557  0.78453638    -0.82900
C3183       C  0.81619925  0.89885733  0.77754240     0.97600
O3184       O  0.82459163  0.92260850  0.77959977    -0.83000
O3185       O  0.82557691  0.96914531  0.78797998    -0.85600
C3186       C  0.81971953  0.97657073  0.76405543     1.02100
O3187       O  0.79829023  0.96268002  0.75181047    -0.78400
O3188       O  0.75450016  0.92009065  0.73442195    -0.78600
C3189       C  0.76162929  0.90571669  0.72211912     1.02100
O3190       O  0.72759042  0.88297736  0.77626663    -0.85900
O3191       O  0.75527624  0.88095352  0.82539203    -0.82900
C3192       C  0.77348358  0.88856925  0.84412136     0.97600
O3193       O  0.79626077  0.90384846  0.83545887    -0.83000
O3194       O  0.79428650  0.94780227  0.84012156    -0.85600
C3195       C  0.78559399  0.96259500  0.83508982     1.02100
O3196       O  0.77706405  0.96364183  0.80918885    -0.78400
O3197       O  0.73247087  0.91866587  0.79385152    -0.78500
C3198       C  0.71789754  0.89553298  0.78689715     1.02000
Cr3199     Cr  0.76246071  0.88742970  0.78159006     1.93700
Cr3200     Cr  0.80803822  0.93476273  0.80893335     1.93200
Cr3201     Cr  0.76641835  0.93971890  0.77356895     1.39100
O3202       O  0.77905641  0.92092836  0.78792729    -1.23600
O3203       O  0.57149222  0.80275122  0.84552109    -0.85900
O3204       O  0.53208640  0.75939360  0.82203096    -0.82900
C3205       C  0.51118419  0.74512319  0.80894657     0.97600
O3206       O  0.50433815  0.75344924  0.78651760    -0.83000
O3207       O  0.49503923  0.79238420  0.80632749    -0.85600
C3208       C  0.49919495  0.81430650  0.81386794     1.02100
O3209       O  0.52149892  0.83366659  0.81140117    -0.78400
O3210       O  0.55035184  0.82333198  0.85114554    -0.78600
C3211       C  0.56003978  0.81084022  0.86232660     1.02100
O3212       O  0.59343694  0.81651164  0.78494250    -0.85900
O3213       O  0.55540461  0.77155598  0.76208163    -0.82900
C3214       C  0.54830377  0.77727933  0.73762672     0.97600
O3215       O  0.53462789  0.78755394  0.73809422    -0.83000
O3216       O  0.52239301  0.82278470  0.75453682    -0.85600
C3217       C  0.54316003  0.84364473  0.75002399     1.02100
O3218       O  0.56191701  0.85109996  0.76796257    -0.78400
O3219       O  0.59388410  0.84695419  0.81119250    -0.78500
C3220       C  0.60582849  0.83850577  0.79605447     1.02000
Cr3221     Cr  0.56179438  0.78882933  0.80302636     1.93700
Cr3222     Cr  0.51618691  0.78999086  0.77333743     1.93200
Cr3223     Cr  0.55617547  0.83639268  0.80936943     1.39100
O3224       O  0.54464462  0.80491975  0.79527101    -1.23600
O3225       O  0.55124341  0.10659538  0.67799771    -0.85900
O3226       O  0.54046262  0.12773260  0.62891631    -0.82900
C3227       C  0.55432892  0.15082465  0.63657385     0.97600
O3228       O  0.57843464  0.16062214  0.63710242    -0.83000
O3229       O  0.62728822  0.16523129  0.63331338    -0.85600
C3230       C  0.63515074  0.15978890  0.65720101     1.02100
O3231       O  0.62251174  0.13790388  0.66909401    -0.78400
O3232       O  0.57928631  0.09366235  0.68513782    -0.78600
C3233       C  0.56453217  0.10121669  0.69545337     1.02100
O3234       O  0.54461516  0.06485876  0.64252970    -0.85900
O3235       O  0.54325683  0.09124003  0.59069572    -0.82900
C3236       C  0.55053543  0.10947292  0.57187016     0.97600
O3237       O  0.56494625  0.13241339  0.58060625    -0.83000
O3238       O  0.61088370  0.13442877  0.58051744    -0.85600
C3239       C  0.62518334  0.12525332  0.58622823     1.02100
O3240       O  0.62569281  0.11676311  0.61236422    -0.78400
O3241       O  0.58157112  0.07195533  0.62646998    -0.78500
C3242       C  0.55849316  0.05642743  0.63263777     1.02000
Cr3243     Cr  0.54742325  0.09884789  0.63465195     1.93700
Cr3244     Cr  0.59437625  0.14609599  0.60979257     1.93200
Cr3245     Cr  0.60061996  0.10581642  0.64693193     1.39100
O3246       O  0.58121029  0.11708133  0.63050823    -1.23600
O3247       O  0.46645953  0.91545157  0.56919358    -0.85900
O3248       O  0.42352997  0.87500908  0.59267739    -0.82900
C3249       C  0.40881900  0.85521279  0.60747564     0.97600
O3250       O  0.41772841  0.84699085  0.62783545    -0.83000
O3251       O  0.45309349  0.83547349  0.60076636    -0.85600
C3252       C  0.47390715  0.83917652  0.58940802     1.02100
O3253       O  0.49413340  0.86098900  0.59121970    -0.78400
O3254       O  0.48554093  0.89389375  0.55775744    -0.78600
C3255       C  0.47374935  0.90518732  0.54961605     1.02100
O3256       O  0.48262160  0.93356718  0.63037395    -0.85900
O3257       O  0.43812059  0.89511702  0.65332904    -0.82900
C3258       C  0.44522418  0.88775346  0.67646540     0.97600
O3259       O  0.45575370  0.87441943  0.67348963    -0.83000
O3260       O  0.48741095  0.85898939  0.64994508    -0.85600
C3261       C  0.50959064  0.87831921  0.65316722     1.02100
O3262       O  0.51632416  0.89864346  0.63830908    -0.78400
O3263       O  0.51213071  0.93431217  0.60151539    -0.78500
C3264       C  0.50459284  0.94575433  0.61901264     1.02000
Cr3265     Cr  0.45391154  0.90340761  0.61160890     1.93700
Cr3266     Cr  0.45445846  0.85612522  0.63622719     1.93200
Cr3267     Cr  0.49979795  0.89629125  0.59852597     1.39100
O3268       O  0.46931957  0.88521305  0.61532942    -1.23600
O3269       O  0.86630124  0.11678316  0.51345847    -0.85900
O3270       O  0.90750375  0.11577338  0.99286100    -0.82900
C3271       C  0.92114430  0.10810831  0.98047648     0.97600
O3272       O  0.91212140  0.09185747  0.95954857    -0.83000
O3273       O  0.87386778  0.04610059  0.98573559    -0.85600
C3274       C  0.85217932  0.02996301  0.99634356     1.02100
O3275       O  0.83295209  0.03269851  0.99161286    -0.78400
O3276       O  0.84482512  0.07605813  0.52542735    -0.78600
C3277       C  0.85685543  0.09931113  0.53332358     1.02100
O3278       O  0.85137948  0.12043145  0.95259933    -0.85900
O3279       O  0.89536176  0.12323478  0.93134410    -0.82900
C3280       C  0.88901941  0.10874561  0.90851714     0.97600
O3281       O  0.87758303  0.08475382  0.91179988    -0.83000
O3282       O  0.84260094  0.03778552  0.93357880    -0.85600
C3283       C  0.82178868  0.03713558  0.92755455     1.02100
O3284       O  0.81514413  0.05081283  0.94214314    -0.78400
O3285       O  0.81984518  0.09070576  0.97904009    -0.78500
C3286       C  0.82931651  0.11123723  0.96379852     1.02000
Cr3287     Cr  0.87851610  0.11609707  0.97222856     1.93700
Cr3288     Cr  0.87554339  0.06651734  0.94937316     1.93200
Cr3289     Cr  0.83002640  0.06380189  0.98314272     1.39100
O3290       O  0.86141473  0.08226060  0.96830726    -1.23600
O3291       O  0.77647636  0.20173104  0.90705185    -0.85900
O3292       O  0.77806070  0.24418637  0.93026890    -0.82900
C3293       C  0.77030628  0.25761944  0.94290572     0.97600
O3294       O  0.75340979  0.24818076  0.96328290    -0.83000
O3295       O  0.70682031  0.21005331  0.93818502    -0.85600
C3296       C  0.68992368  0.18846650  0.92827149     1.02100
O3297       O  0.69304410  0.16931047  0.93039126    -0.78400
O3298       O  0.73553911  0.18117864  0.89581668    -0.78600
C3299       C  0.75872074  0.19393741  0.88753099     1.02100
O3300       O  0.78048611  0.18595416  0.96766485    -0.85900
O3301       O  0.78490005  0.22963935  0.99080768    -0.82900
C3302       C  0.77086989  0.22390573  0.51401817     0.97600
O3303       O  0.74691881  0.21372696  0.51104067    -0.83000
O3304       O  0.70010736  0.17854131  0.48881987    -0.85600
C3305       C  0.69860985  0.15692688  0.99343400     1.02100
O3306       O  0.71161189  0.15021766  0.97748253    -0.78400
O3307       O  0.75148145  0.15621976  0.93902831    -0.78500
C3308       C  0.77129651  0.16439496  0.95536148     1.02000
Cr3309     Cr  0.77719422  0.21404844  0.94930226     1.93700
Cr3310     Cr  0.72803670  0.21146859  0.97353136     1.93200
Cr3311     Cr  0.72452043  0.16662323  0.93701741     1.39100
O3312       O  0.74332626  0.19746607  0.95336623    -1.23600
C3313       C  0.78788717  0.11083860  0.95830900    -0.20800
C3314       C  0.81478113  0.12508836  0.96066539    -0.07400
C3315       C  0.82699339  0.15214776  0.96254993     0.13500
C3316       C  0.81212916  0.16408712  0.96128772    -0.20900
C3317       C  0.78529789  0.14993736  0.95806716    -0.07400
C3318       C  0.77301280  0.12285056  0.95677504     0.13500
C3319       C  0.74424255  0.10638639  0.95473978    -0.24200
H3320       H  0.77843242  0.09010988  0.95754344     0.14700
H3321       H  0.82168017  0.18480842  0.96243599     0.14800
C3322       C  0.85558117  0.16865964  0.96708537    -0.24200
H3323       H  0.73789597  0.08565095  0.95600508     0.05000
H3324       H  0.73733842  0.10981335  0.93290651     0.08200
H3325       H  0.73517230  0.11085857  0.97371620     0.08200
H3326       H  0.86591660  0.16731833  0.94718295     0.08200
H3327       H  0.86153272  0.16239254  0.98768954     0.08200
H3328       H  0.86152388  0.18918159  0.96990104     0.05000
C3329       C  0.65434413  0.12912791  0.50907969    -0.20800
C3330       C  0.68040675  0.14054368  0.51662755    -0.07400
C3331       C  0.68754751  0.14249799  0.54733052     0.13500
C3332       C  0.66862774  0.13494069  0.56984494    -0.20900
C3333       C  0.64289150  0.12634095  0.56225107    -0.07400
C3334       C  0.63547349  0.12209904  0.53144056     0.13500
C3335       C  0.60785481  0.11093050  0.52182559    -0.24200
H3336       H  0.64897726  0.12785562  0.48546642     0.14700
H3337       H  0.67433413  0.13788304  0.59339972     0.14800
C3338       C  0.71532059  0.15424567  0.55631420    -0.24200
H3339       H  0.60540094  0.10708970  0.49717682     0.05000
H3340       H  0.60106137  0.12450176  0.52675916     0.08200
H3341       H  0.59566488  0.09252627  0.53387796     0.08200
H3342       H  0.72627291  0.17440171  0.54836582     0.08200
H3343       H  0.72357158  0.14323813  0.54608438     0.08200
H3344       H  0.71763830  0.15417694  0.58121326     0.05000
C3345       C  0.53956828  0.98956161  0.60365661    -0.20800
C3346       C  0.52057873  0.97390455  0.62474355    -0.07400
C3347       C  0.51605564  0.98578365  0.64974637     0.13500
C3348       C  0.52943374  0.01260112  0.65186120    -0.20900
C3349       C  0.54740375  0.02822766  0.63003370    -0.07400
C3350       C  0.55298775  0.01652771  0.60594557     0.13500
C3351       C  0.57210585  0.03232191  0.58182536    -0.24200
H3352       H  0.54326258  0.98073640  0.58457644     0.14700
H3353       H  0.52552773  0.02154692  0.67066814     0.14800
C3354       C  0.49731376  0.97064389  0.67461970    -0.24200
H3355       H  0.57332379  0.02011039  0.56401422     0.05000
H3356       H  0.59148013  0.04383787  0.59195209     0.08200
H3357       H  0.56637091  0.04530476  0.57089060     0.08200
H3358       H  0.50183633  0.95629682  0.68410262     0.08200
H3359       H  0.47735196  0.96096570  0.66589408     0.08200
H3360       H  0.49821282  0.98312023  0.69347284     0.05000
C3361       C  0.53522586  0.89009230  0.70047276    -0.20800
C3362       C  0.52728634  0.87564304  0.67382752    -0.07400
C3363       C  0.53118694  0.85459509  0.67055471     0.13500
C3364       C  0.53896027  0.84600624  0.69555455    -0.20900
C3365       C  0.54417124  0.85864057  0.72326988    -0.07400
C3366       C  0.54381543  0.88179735  0.72541551     0.13500
C3367       C  0.55055549  0.89656511  0.75451057    -0.24200
H3368       H  0.53262195  0.90650729  0.70267942     0.14700
H3369       H  0.53877095  0.82800919  0.69418520     0.14800
C3370       C  0.52602408  0.84038150  0.64111038    -0.24200
H3371       H  0.54876498  0.91395060  0.75241405     0.05000
H3372       H  0.57068169  0.90269692  0.76074863     0.08200
H3373       H  0.53765796  0.88443748  0.77292404     0.08200
H3374       H  0.53744674  0.85398620  0.62280627     0.08200
H3375       H  0.50542030  0.83097178  0.63531851     0.08200
H3376       H  0.53134395  0.82523948  0.64227443     0.05000
C3377       C  0.79858706  0.00676477  0.85125935    -0.20800
C3378       C  0.78807348  0.98077865  0.85907960    -0.07400
C3379       C  0.78386984  0.97358789  0.88996265     0.13500
C3380       C  0.79240573  0.99268976  0.91215706    -0.20900
C3381       C  0.80526943  0.01875410  0.90432765    -0.07400
C3382       C  0.80767359  0.02587912  0.87354844     0.13500
C3383       C  0.82142386  0.05366050  0.86417290    -0.24200
H3384       H  0.80176987  0.01233746  0.82763657     0.14700
H3385       H  0.79081951  0.98733369  0.93582015     0.14800
C3386       C  0.77103565  0.94590447  0.89974895    -0.24200
H3387       H  0.82144342  0.05592944  0.83924867     0.05000
H3388       H  0.84164760  0.06311721  0.87182699     0.08200
H3389       H  0.81187115  0.06343238  0.87440008     0.08200
H3390       H  0.78326536  0.93769585  0.89403199     0.08200
H3391       H  0.75213373  0.93482036  0.88836673     0.08200
H3392       H  0.76778727  0.94374189  0.92453788     0.05000
C3393       C  0.67489821  0.86045495  0.77179977    -0.20800
C3394       C  0.68926648  0.88257747  0.78922512    -0.07400
C3395       C  0.67591328  0.89069637  0.80828481     0.13500
C3396       C  0.64881028  0.87634108  0.80946825    -0.20900
C3397       C  0.63448433  0.85379396  0.79245807    -0.07400
C3398       C  0.64806722  0.84589518  0.77325232     0.13500
C3399       C  0.63491733  0.82205363  0.75410099    -0.24200
H3400       H  0.68482924  0.85417512  0.75686086     0.14700
H3401       H  0.63879665  0.88255214  0.82435467     0.14800
C3402       C  0.68995685  0.91391057  0.82812439    -0.24200
H3403       H  0.64865717  0.81968664  0.73977370     0.05000
H3404       H  0.62091791  0.82309635  0.73875399     0.08200
H3405       H  0.62512977  0.80477102  0.76874412     0.08200
H3406       H  0.70088620  0.93134230  0.81396802     0.08200
H3407       H  0.70329889  0.91153510  0.84338548     0.08200
H3408       H  0.67655687  0.91685613  0.84238914     0.05000
C3409       C  0.98263452  0.46921221  0.91183548    -0.20800
C3410       C  0.96744817  0.44973244  0.89132028    -0.07400
C3411       C  0.97970097  0.44352060  0.86848475     0.13500
C3412       C  0.00640914  0.45909120  0.86448107    -0.20900
C3413       C  0.02130581  0.48023794  0.88330766    -0.07400
C3414       C  0.00931319  0.48421663  0.90857280     0.13500
C3415       C  0.02417869  0.50402253  0.93246792    -0.24200
H3416       H  0.97340362  0.47321741  0.93025740     0.14700
H3417       H  0.01552062  0.45517699  0.84586737     0.14800
C3418       C  0.96480743  0.42111263  0.84776138    -0.24200
H3419       H  0.01182370  0.50245049  0.95185690     0.05000
H3420       H  0.03216097  0.52363853  0.92303090     0.08200
H3421       H  0.03989427  0.50128908  0.94140472     0.08200
H3422       H  0.95018949  0.42343823  0.83523494     0.08200
H3423       H  0.95520406  0.40309422  0.86118667     0.08200
H3424       H  0.97743632  0.41930394  0.83097907     0.05000
C3425       C  0.79886610  0.32013894  0.89899774    -0.20800
C3426       C  0.81423108  0.33791381  0.92126202    -0.07400
C3427       C  0.81216168  0.32925678  0.95156196     0.13500
C3428       C  0.79607102  0.30305649  0.95822763    -0.20900
C3429       C  0.78274417  0.28519217  0.93537233    -0.07400
C3430       C  0.78368338  0.29388241  0.90552054     0.13500
C3431       C  0.76885932  0.27548219  0.88045427    -0.24200
H3432       H  0.80001035  0.32648847  0.87580640     0.14700
H3433       H  0.79508092  0.29622466  0.98117715     0.14800
C3434       C  0.82690676  0.34724691  0.97699296    -0.24200
H3435       H  0.77115115  0.28560069  0.85862932     0.05000
H3436       H  0.74812341  0.26476202  0.88617341     0.08200
H3437       H  0.77573484  0.26172773  0.87721925     0.08200
H3438       H  0.82302924  0.36338566  0.97734926     0.08200
H3439       H  0.84777439  0.35475292  0.97425935     0.08200
H3440       H  0.82131007  0.33744595  0.99930913     0.05000
C3441       C  0.14600428  0.46179968  0.94795330    -0.20800
C3442       C  0.13644790  0.45997201  0.97736229    -0.07400
C3443       C  0.11476425  0.46297576  0.98152249     0.13500
C3444       C  0.10587101  0.47132862  0.95701427    -0.20900
C3445       C  0.11869189  0.47749875  0.92927063    -0.07400
C3446       C  0.13772089  0.47098568  0.92399819     0.13500
C3447       C  0.15011070  0.47476938  0.89343441    -0.24200
H3448       H  0.16155776  0.45804082  0.94408529     0.14700
H3449       H  0.09026683  0.47505112  0.96021837     0.14800
C3450       C  0.10180698  0.45899561  0.01171592    -0.24200
H3451       H  0.16403141  0.46782906  0.89305083     0.05000
H3452       H  0.16069244  0.49539419  0.88743976     0.08200
H3453       H  0.13516636  0.46405555  0.87611435     0.08200
H3454       H  0.11536346  0.47283762  0.02843662     0.08200
H3455       H  0.09639271  0.43994620  0.51856211     0.08200
H3456       H  0.08503467  0.46189749  0.01033227     0.05000
C3457       C  0.11475616  0.32143235  0.57101278    -0.20800
C3458       C  0.10704875  0.31099468  0.54209163    -0.07400
C3459       C  0.11043192  0.32751298  0.51742949     0.13500
C3460       C  0.12223527  0.35410978  0.52230991    -0.20900
C3461       C  0.13110588  0.36451495  0.55104961    -0.07400
C3462       C  0.12681097  0.34791386  0.57579920     0.13500
C3463       C  0.13507974  0.35807596  0.60733951    -0.24200
H3464       H  0.11180231  0.30880941  0.58992651     0.14700
H3465       H  0.12182602  0.36587904  0.00318293     0.14800
C3466       C  0.09852239  0.31646481  0.98497480    -0.24200
H3467       H  0.12920871  0.34236678  0.62416250     0.05000
H3468       H  0.12624196  0.36964055  0.61385975     0.08200
H3469       H  0.15623090  0.37015997  0.60840240     0.08200
H3470       H  0.07751833  0.30291380  0.98447894     0.08200
H3471       H  0.10876326  0.30655771  0.97727700     0.08200
H3472       H  0.10276864  0.33222714  0.96875281     0.05000
C3473       C  0.95391755  0.12139946  0.02061781    -0.20800
C3474       C  0.94825564  0.11946459  0.98968722    -0.07400
C3475       C  0.96854225  0.13124327  0.96853732     0.13500
C3476       C  0.99374595  0.14693933  0.97905547    -0.20900
C3477       C  0.99904113  0.15045838  0.01005084    -0.07400
C3478       C  0.97915544  0.13650867  0.03105593     0.13500
C3479       C  0.98427288  0.13852168  0.06454843    -0.24200
H3480       H  0.93835597  0.11195346  0.03671879     0.14700
H3481       H  0.00882223  0.16659870  0.46011900     0.14800
C3482       C  0.96354775  0.12886665  0.93499661    -0.24200
H3483       H  0.96665920  0.12573058  0.07762654     0.05000
H3484       H  0.99566418  0.15157551  0.57021668     0.08200
H3485       H  0.99888506  0.13300694  0.06978207     0.08200
H3486       H  0.94870676  0.14592336  0.43131908     0.08200
H3487       H  0.95460860  0.10846433  0.92826839     0.08200
H3488       H  0.98155515  0.13991491  0.92185268     0.05000
C3489       C  0.67696035  0.16703926  0.67468881    -0.20800
C3490       C  0.66126969  0.17758200  0.66908408    -0.07400
C3491       C  0.67161500  0.20427119  0.67278305     0.13500
C3492       C  0.69764851  0.21976037  0.68132949    -0.20900
C3493       C  0.71364837  0.20920288  0.68527507    -0.07400
C3494       C  0.70288788  0.18234276  0.68229785     0.13500
C3495       C  0.71846112  0.16937113  0.68738653    -0.24200
H3496       H  0.66909177  0.14660018  0.67181486     0.14700
H3497       H  0.70570850  0.24022282  0.68405641     0.14800
C3498       C  0.65517429  0.21627730  0.66835330    -0.24200
H3499       H  0.70640740  0.14816181  0.68642442     0.05000
H3500       H  0.72763298  0.17443845  0.70996829     0.08200
H3501       H  0.73337002  0.17528683  0.66967246     0.08200
H3502       H  0.63836241  0.20700634  0.68371199     0.08200
H3503       H  0.64839668  0.21387957  0.64461987     0.08200
H3504       H  0.66595442  0.23711737  0.67332314     0.05000
C3505       C  0.85159958  0.31195752  0.80055446    -0.20800
C3506       C  0.85459650  0.32091367  0.77066086    -0.07400
C3507       C  0.86713598  0.34753395  0.76514406     0.13500
C3508       C  0.87460269  0.36448220  0.78959155    -0.20900
C3509       C  0.86968776  0.35555646  0.81960679    -0.07400
C3510       C  0.85912137  0.32896131  0.82517462     0.13500
C3511       C  0.85390294  0.31816442  0.85678865    -0.24200
H3512       H  0.84166642  0.29147156  0.80467468     0.14700
H3513       H  0.88278254  0.38477956  0.78515972     0.14800
C3514       C  0.87122764  0.35800468  0.73338289    -0.24200
H3515       H  0.84480537  0.29697456  0.85690023     0.05000
H3516       H  0.84075320  0.32312014  0.86840979     0.08200
H3517       H  0.87218909  0.32612929  0.86956910     0.08200
H3518       H  0.85247008  0.35108310  0.72198367     0.08200
H3519       H  0.88270888  0.35156243  0.72050685     0.08200
H3520       H  0.88162478  0.37929319  0.73302524     0.05000
C3521       C  0.80236879  0.22378934  0.58898561    -0.20800
C3522       C  0.79929108  0.24190110  0.60546276    -0.07400
C3523       C  0.78665489  0.25376457  0.59149547     0.13500
C3524       C  0.77824961  0.24792086  0.56145801    -0.20900
C3525       C  0.78187286  0.23037533  0.54483818    -0.07400
C3526       C  0.79382731  0.21792272  0.55879277     0.13500
C3527       C  0.79665600  0.19777797  0.54222831    -0.24200
H3528       H  0.81136337  0.21413388  0.59980524     0.14700
H3529       H  0.76843825  0.25688313  0.55091083     0.14800
C3530       C  0.78076392  0.27168770  0.60855983    -0.24200
H3531       H  0.80578496  0.18941922  0.55659626     0.05000
H3532       H  0.80879979  0.20636079  0.52191201     0.08200
H3533       H  0.77746740  0.18202229  0.53520812     0.08200
H3534       H  0.79888734  0.28886487  0.61519218     0.08200
H3535       H  0.76931791  0.26195264  0.62902715     0.08200
H3536       H  0.76968884  0.27819084  0.59468121     0.05000
C3537       C  0.79206839  0.22825850  0.81430098    -0.20800
C3538       C  0.77231224  0.21558152  0.79317462    -0.07400
C3539       C  0.74924885  0.19376118  0.80237758     0.13500
C3540       C  0.74575056  0.18655357  0.83308947    -0.20900
C3541       C  0.76501809  0.20019262  0.85479700    -0.07400
C3542       C  0.78903078  0.22073752  0.84475576     0.13500
C3543       C  0.81153418  0.23553195  0.86567105    -0.24200
H3544       H  0.81001086  0.24457964  0.80688758     0.14700
H3545       H  0.72758044  0.17043096  0.84024745     0.14800
C3546       C  0.72798441  0.17863482  0.78019898    -0.24200
H3547       H  0.82860295  0.25054941  0.85346330     0.05000
H3548       H  0.81720577  0.22238107  0.87623742     0.08200
H3549       H  0.80656237  0.24523942  0.88331860     0.08200
H3550       H  0.73479979  0.17018637  0.76295614     0.08200
H3551       H  0.72196709  0.19129531  0.76900139     0.08200
H3552       H  0.71091491  0.16268029  0.79139310     0.05000
C3553       C  0.86393016  0.01381272  0.75354876    -0.20800
C3554       C  0.83707349  0.00257216  0.75132606    -0.07400
C3555       C  0.82685918  0.01715265  0.73864882     0.13500
C3556       C  0.84348107  0.04204624  0.72847725    -0.20900
C3557       C  0.87034998  0.05379298  0.73109044    -0.07400
C3558       C  0.88073286  0.03918130  0.74341762     0.13500
C3559       C  0.90924268  0.05000838  0.74613656    -0.24200
H3560       H  0.87178990  0.00272902  0.76338549     0.14700
H3561       H  0.83499923  0.05263590  0.71888503     0.14800
C3562       C  0.79834685  0.00745116  0.73721108    -0.24200
H3563       H  0.91387331  0.03588450  0.75613605     0.05000
H3564       H  0.91779275  0.06712071  0.76086035     0.08200
H3565       H  0.91818762  0.05537385  0.72341706     0.08200
H3566       H  0.78982519  0.00158758  0.76010380     0.08200
H3567       H  0.78883476  0.99107095  0.72145393     0.08200
H3568       H  0.79411265  0.02233841  0.72888244     0.05000
C3569       C  0.86965771  0.19986584  0.74358630    -0.20800
C3570       C  0.88610299  0.20081056  0.72065115    -0.07400
C3571       C  0.88982074  0.21627721  0.69490193     0.13500
C3572       C  0.87544593  0.22877137  0.69175115    -0.20900
C3573       C  0.85737974  0.22609378  0.71368384    -0.07400
C3574       C  0.85544932  0.21238969  0.74065907     0.13500
C3575       C  0.83860944  0.21086693  0.76668158    -0.24200
H3576       H  0.86729252  0.18849129  0.76366617     0.14700
H3577       H  0.87738777  0.23959250  0.67132031     0.14800
C3578       C  0.90775634  0.21845611  0.66998990    -0.24200
H3579       H  0.84150982  0.20155253  0.78684644     0.05000
H3580       H  0.81805638  0.19932945  0.76039444     0.08200
H3581       H  0.84324773  0.23045580  0.77329504     0.08200
H3582       H  0.90173056  0.19917349  0.66076533     0.08200
H3583       H  0.92761431  0.22709118  0.67892215     0.08200
H3584       H  0.90787879  0.23075961  0.65114408     0.05000
C3585       C  0.89942018  0.14957596  0.83765901    -0.20800
C3586       C  0.89884378  0.13283846  0.81544545    -0.07400
C3587       C  0.89784386  0.10980525  0.82432311     0.13500
C3588       C  0.89612994  0.10349790  0.85493277    -0.20900
C3589       C  0.89496511  0.11926011  0.87726750    -0.07400
C3590       C  0.89725318  0.14299846  0.86853974     0.13500
C3591       C  0.89636044  0.16098733  0.89123511    -0.24200
H3592       H  0.90068022  0.16743729  0.83074316     0.14700
H3593       H  0.89504735  0.08562279  0.86139943     0.14800
C3594       C  0.89898134  0.09181803  0.80174168    -0.24200
H3595       H  0.89782210  0.17827430  0.88025036     0.05000
H3596       H  0.91262187  0.16752583  0.90731132     0.08200
H3597       H  0.87790128  0.15107454  0.90363976     0.08200
H3598       H  0.91620837  0.10246834  0.78724467     0.08200
H3599       H  0.88138278  0.08303305  0.78766201     0.08200
H3600       H  0.90016061  0.07589985  0.81289685     0.05000
C3601       C  0.87939917  0.13585701  0.60828122    -0.20800
C3602       C  0.87050831  0.11541894  0.62872510    -0.07400
C3603       C  0.85510069  0.09011172  0.61829227     0.13500
C3604       C  0.84971447  0.08577585  0.58735702    -0.20900
C3605       C  0.86021068  0.10599877  0.56617152    -0.07400
C3606       C  0.87480948  0.13160507  0.57709477     0.13500
C3607       C  0.88650552  0.15470081  0.55646775    -0.24200
H3608       H  0.89148061  0.15519134  0.61658752     0.14700
H3609       H  0.83803279  0.06624003  0.57966002     0.14800
C3610       C  0.84468283  0.06755756  0.63974377    -0.24200
H3611       H  0.89688628  0.17291270  0.56925551     0.05000
H3612       H  0.87117583  0.15536509  0.54324596     0.08200
H3613       H  0.90063546  0.15395619  0.54113886     0.08200
H3614       H  0.83303523  0.06980241  0.65751498     0.08200
H3615       H  0.86065069  0.06627133  0.65052680     0.08200
H3616       H  0.83229582  0.04915938  0.62795250     0.05000
C3617       C  0.02046409  0.22220303  0.63149603    -0.20800
C3618       C  0.01218111  0.21467840  0.60179216    -0.07400
C3619       C  0.98573287  0.19979576  0.59553118     0.13500
C3620       C  0.96834313  0.19005589  0.61956271    -0.20900
C3621       C  0.97682708  0.19493743  0.64969220    -0.07400
C3622       C  0.00301143  0.21283275  0.65566753     0.13500
C3623       C  0.01307550  0.22097173  0.68728229    -0.24200
H3624       H  0.04085594  0.23389043  0.63597806     0.14700
H3625       H  0.94816571  0.17722484  0.61481907     0.14800
C3626       C  0.97596305  0.19310382  0.56358342    -0.24200
H3627       H  0.03403761  0.23483578  0.68748346     0.05000
H3628       H  0.00965407  0.20413800  0.70099748     0.08200
H3629       H  0.00333416  0.23040571  0.69789492     0.08200
H3630       H  0.98365352  0.18186957  0.55281019     0.08200
H3631       H  0.98214355  0.21095927  0.55036571     0.08200
H3632       H  0.95468035  0.18150781  0.56273354     0.05000
C3633       C  0.82573005  0.97283734  0.54532788    -0.20800
C3634       C  0.83245892  0.95713442  0.52920162    -0.07400
C3635       C  0.85282635  0.96865749  0.50816388     0.13500
C3636       C  0.86219902  0.99441202  0.49954764    -0.20900
C3637       C  0.85250420  0.00893465  0.51278137    -0.07400
C3638       C  0.83589774  0.99869080  0.53783474     0.13500
C3639       C  0.82874583  0.01488443  0.55668060    -0.24200
H3640       H  0.81149146  0.96451356  0.56311543     0.14700
H3641       H  0.87374093  0.00104564  0.98327412     0.14800
C3642       C  0.86425387  0.95395930  0.49436343    -0.24200
H3643       H  0.81721531  0.00420566  0.57673318     0.05000
H3644       H  0.80845421  0.01549499  0.03738961     0.08200
H3645       H  0.84649490  0.03196011  0.56490032     0.08200
H3646       H  0.84910101  0.93550924  0.98474405     0.08200
H3647       H  0.87271079  0.94764967  0.51243295     0.08200
H3648       H  0.87900174  0.96506806  0.98186792     0.05000
C3649       C  0.78955964  0.89517638  0.89641376    -0.20800
C3650       C  0.76908522  0.88085970  0.87651119    -0.07400
C3651       C  0.74547201  0.86116200  0.88850873     0.13500
C3652       C  0.74315951  0.85674476  0.91994664    -0.20900
C3653       C  0.76343686  0.87205943  0.93955249    -0.07400
C3654       C  0.78693689  0.89136380  0.92755838     0.13500
C3655       C  0.80964291  0.90784878  0.94741762    -0.24200
H3656       H  0.80773719  0.91028111  0.88774415     0.14700
H3657       H  0.72525802  0.84173981  0.92936624     0.14800
C3658       C  0.72270762  0.84469004  0.86869959    -0.24200
H3659       H  0.82695922  0.92087768  0.93401685     0.05000
H3660       H  0.81436193  0.89553140  0.96161289     0.08200
H3661       H  0.80525810  0.92001296  0.96203538     0.08200
H3662       H  0.72809326  0.83489631  0.85155219     0.08200
H3663       H  0.71591220  0.85665504  0.85735364     0.08200
H3664       H  0.70638006  0.82970332  0.88195036     0.05000
C3665       C  0.74263280  0.88237958  0.67432728    -0.20800
C3666       C  0.76194011  0.90413907  0.68895775    -0.07400
C3667       C  0.78250145  0.92326138  0.67200339     0.13500
C3668       C  0.78396472  0.91965987  0.64106739    -0.20900
C3669       C  0.76516782  0.89759100  0.62642272    -0.07400
C3670       C  0.74374752  0.87904699  0.64303578     0.13500
C3671       C  0.72259665  0.85537098  0.62821849    -0.24200
H3672       H  0.72687423  0.86780807  0.68752211     0.14700
H3673       H  0.80023735  0.93398579  0.62827441     0.14800
C3674       C  0.80330313  0.94724726  0.68653194    -0.24200
H3675       H  0.70805184  0.84236941  0.64485958     0.05000
H3676       H  0.73061000  0.84460206  0.61691015     0.08200
H3677       H  0.71269711  0.86091910  0.61115623     0.08200
H3678       H  0.81246290  0.94224558  0.70510958     0.08200
H3679       H  0.79479643  0.95842407  0.69541469     0.08200
H3680       H  0.81850409  0.95966115  0.67017482     0.05000
C3681       C  0.47832401  0.77885202  0.58257640    -0.20800
C3682       C  0.49541048  0.78582865  0.55821803    -0.07400
C3683       C  0.50134859  0.80802504  0.54123364     0.13500
C3684       C  0.49172211  0.82376553  0.55027948    -0.20900
C3685       C  0.47627376  0.81800141  0.57599815    -0.07400
C3686       C  0.46839197  0.79457062  0.59150139     0.13500
C3687       C  0.45086919  0.78685359  0.61848563    -0.24200
H3688       H  0.47370246  0.76172838  0.59545871     0.14700
H3689       H  0.49765104  0.84161599  0.53830210     0.14800
C3690       C  0.51916780  0.81606553  0.51457941    -0.24200
H3691       H  0.44705691  0.76822706  0.62813505     0.05000
H3692       H  0.43220395  0.78483850  0.61164656     0.08200
H3693       H  0.45961423  0.80151758  0.63645480     0.08200
H3694       H  0.51141791  0.80043862  0.49776782     0.08200
H3695       H  0.53845470  0.82027199  0.52212679     0.08200
H3696       H  0.52130053  0.83355853  0.50338398     0.05000
C3697       C  0.67541229  0.83050924  0.54250721    -0.20800
C3698       C  0.68895823  0.81718013  0.54151182    -0.07400
C3699       C  0.67492158  0.79006931  0.54428194     0.13500
C3700       C  0.64791402  0.77723595  0.54663697    -0.20900
C3701       C  0.63442711  0.79064537  0.54623794    -0.07400
C3702       C  0.64860263  0.81781332  0.54487390     0.13500
C3703       C  0.63591346  0.83389170  0.54676053    -0.24200
H3704       H  0.68591529  0.85125997  0.54126750     0.14700
H3705       H  0.63720303  0.75650292  0.54819746     0.14800
C3706       C  0.68799220  0.77437903  0.54411446    -0.24200
H3707       H  0.65019115  0.85469944  0.54780389     0.05000
H3708       H  0.62396424  0.82878109  0.56747005     0.08200
H3709       H  0.62387758  0.83091198  0.52648492     0.08200
H3710       H  0.70125065  0.77965404  0.56368398     0.08200
H3711       H  0.69882366  0.77774957  0.52274082     0.08200
H3712       H  0.67399016  0.75352638  0.54585545     0.05000
C3713       C  0.57158365  0.78651496  0.65657367    -0.20800
C3714       C  0.55999872  0.76113531  0.64611025    -0.07400
C3715       C  0.54784827  0.74092680  0.66777142     0.13500
C3716       C  0.54572590  0.74676017  0.69812644    -0.20900
C3717       C  0.55566920  0.77212928  0.70764214    -0.07400
C3718       C  0.56973405  0.79224195  0.68678485     0.13500
C3719       C  0.58335750  0.82012892  0.69551556    -0.24200
H3720       H  0.58182053  0.80232325  0.64090953     0.14700
H3721       H  0.53524451  0.73137933  0.71424170     0.14800
C3722       C  0.53668453  0.71316150  0.65941761    -0.24200
H3723       H  0.57648210  0.83059384  0.68120155     0.05000
H3724       H  0.60423254  0.82865375  0.69136619     0.08200
H3725       H  0.58072204  0.82320999  0.71957519     0.08200
H3726       H  0.55190877  0.71009680  0.64981795     0.08200
H3727       H  0.52100369  0.70750643  0.64277297     0.08200
H3728       H  0.52850676  0.70026912  0.67932463     0.05000
C3729       C  0.53015660  0.78728737  0.93984839    -0.20800
C3730       C  0.55051489  0.78814763  0.95604788    -0.07400
C3731       C  0.57471403  0.79807565  0.94208362     0.13500
C3732       C  0.57763290  0.80582459  0.91156844    -0.20900
C3733       C  0.55712625  0.80479943  0.89517259    -0.07400
C3734       C  0.53331377  0.79613397  0.90994645     0.13500
C3735       C  0.51088911  0.79559742  0.89422513    -0.24200
H3736       H  0.51158579  0.77944864  0.95064397     0.14700
H3737       H  0.59592711  0.81260949  0.90044676     0.14800
C3738       C  0.59717935  0.79980740  0.95913648    -0.24200
H3739       H  0.49337216  0.78673254  0.90850084     0.05000
H3740       H  0.50639322  0.78453986  0.87296114     0.08200
H3741       H  0.51574381  0.81555121  0.88906226     0.08200
H3742       H  0.59257477  0.78047797  0.96710407     0.08200
H3743       H  0.60152248  0.81256467  0.97888543     0.08200
H3744       H  0.61465084  0.80775498  0.94485038     0.05000
C3745       C  0.53172014  0.67413787  0.92676048    -0.20800
C3746       C  0.52003389  0.64828729  0.93545087    -0.07400
C3747       C  0.52169733  0.64201672  0.96590256     0.13500
C3748       C  0.53227215  0.66165269  0.98749793    -0.20900
C3749       C  0.54072676  0.68716348  0.97930552    -0.07400
C3750       C  0.54159497  0.69364839  0.94843968     0.13500
C3751       C  0.55107794  0.72086871  0.93851199    -0.24200
H3752       H  0.53062424  0.67893458  0.90335577     0.14700
H3753       H  0.53276358  0.65722192  0.51030748     0.14800
C3754       C  0.51174160  0.61465741  0.97579233    -0.24200
H3755       H  0.55140805  0.72271050  0.91350875     0.05000
H3756       H  0.57085009  0.73348885  0.94708019     0.08200
H3757       H  0.53820073  0.72740951  0.94730106     0.08200
H3758       H  0.52125003  0.60625129  0.96248339     0.08200
H3759       H  0.49068845  0.60302650  0.97249015     0.08200
H3760       H  0.51570206  0.61342183  0.00008732     0.05000
C3761       C  0.48382043  0.68546382  0.85826520    -0.20800
C3762       C  0.47815324  0.66632058  0.83671280    -0.07400
C3763       C  0.47932302  0.67273242  0.80566356     0.13500
C3764       C  0.48815699  0.69842776  0.79715423    -0.20900
C3765       C  0.49609876  0.71788426  0.81884887    -0.07400
C3766       C  0.49280787  0.71103069  0.84982567     0.13500
C3767       C  0.49847107  0.73049763  0.87422353    -0.24200
H3768       H  0.48241511  0.68068433  0.88209343     0.14700
H3769       H  0.49031937  0.70358052  0.77340570     0.14800
C3770       C  0.47128598  0.65271365  0.78142491    -0.24200
H3771       H  0.49358594  0.72152685  0.89702947     0.05000
H3772       H  0.48677478  0.73971114  0.87021216     0.08200
H3773       H  0.51913677  0.74520864  0.87453976     0.08200
H3774       H  0.45136305  0.63696696  0.78570471     0.08200
H3775       H  0.48443601  0.64487673  0.78102000     0.08200
H3776       H  0.47178239  0.66080139  0.75865824     0.05000
C3777       C  0.51702564  0.51022727  0.85956754    -0.20800
C3778       C  0.54148468  0.52307999  0.87259133    -0.07400
C3779       C  0.55176308  0.54884880  0.88157401     0.13500
C3780       C  0.53698140  0.56085489  0.87786524    -0.20900
C3781       C  0.51205717  0.54774915  0.86549645    -0.07400
C3782       C  0.50219929  0.52197148  0.85575122     0.13500
C3783       C  0.47607459  0.50615815  0.84136438    -0.24200
H3784       H  0.50926557  0.49049170  0.85259596     0.14700
H3785       H  0.54478598  0.58044527  0.88533799     0.14800
C3786       C  0.57774391  0.56335947  0.89633687    -0.24200
H3787       H  0.47235952  0.48693402  0.83441744     0.05000
H3788       H  0.47469311  0.51594620  0.82071381     0.08200
H3789       H  0.46080850  0.50296164  0.85769050     0.08200
H3790       H  0.59276146  0.56522430  0.88041361     0.08200
H3791       H  0.57813987  0.55303583  0.91701270     0.08200
H3792       H  0.58244596  0.58296417  0.90296747     0.05000
C3793       C  0.67840282  0.55663534  0.78883899    -0.20800
C3794       C  0.67243001  0.54384717  0.76113879    -0.07400
C3795       C  0.64743972  0.52307069  0.75619250     0.13500
C3796       C  0.63014177  0.51355110  0.78025373    -0.20900
C3797       C  0.63749727  0.52357486  0.80951771    -0.07400
C3798       C  0.66141198  0.54647735  0.81346589     0.13500
C3799       C  0.67005007  0.55933745  0.84371575    -0.24200
H3800       H  0.69727361  0.57320678  0.79201052     0.14700
H3801       H  0.61137055  0.49687685  0.77658997     0.14800
C3802       C  0.63933924  0.51003571  0.72590701    -0.24200
H3803       H  0.68928144  0.57687964  0.84241128     0.05000
H3804       H  0.67132567  0.54609001  0.86022795     0.08200
H3805       H  0.65630113  0.56508543  0.85190385     0.08200
H3806       H  0.65062323  0.50072370  0.72042528     0.08200
H3807       H  0.64236027  0.52434417  0.70812582     0.08200
H3808       H  0.61875171  0.49491472  0.72565831     0.05000
C3809       C  0.78793235  0.80420395  0.65777806    -0.20800
C3810       C  0.80504432  0.79582197  0.65029709    -0.07400
C3811       C  0.81088971  0.79478024  0.61965925     0.13500
C3812       C  0.80066604  0.80364068  0.59730887    -0.20900
C3813       C  0.78594910  0.81477706  0.60509766    -0.07400
C3814       C  0.77854398  0.81406431  0.63553487     0.13500
C3815       C  0.76122280  0.82411556  0.64473159    -0.24200
H3816       H  0.78359798  0.80500015  0.68135438     0.14700
H3817       H  0.80641185  0.80432919  0.57398270     0.14800
C3818       C  0.82945312  0.78624563  0.61058837    -0.24200
H3819       H  0.75656482  0.82104150  0.66919454     0.05000
H3820       H  0.74295616  0.81389417  0.63191170     0.08200
H3821       H  0.77056415  0.84500321  0.64026854     0.08200
H3822       H  0.82345231  0.76706029  0.62037136     0.08200
H3823       H  0.84889297  0.80036227  0.61866048     0.08200
H3824       H  0.83052237  0.78501671  0.58566054     0.05000
C3825       C  0.79976065  0.68711849  0.68470393    -0.20800
C3826       C  0.80254451  0.69826610  0.71319931    -0.07400
C3827       C  0.79157826  0.68218235  0.73879554     0.13500
C3828       C  0.77892670  0.65541374  0.73530042    -0.20900
C3829       C  0.77655583  0.64437966  0.70686001    -0.07400
C3830       C  0.78678269  0.66039732  0.68118141    -0.00900
C3831       C  0.78531943  0.64941464  0.65027515    -0.24200
H3832       H  0.80834423  0.69943265  0.66518068     0.14700
H3833       H  0.77117328  0.64300327  0.75490612     0.14800
C3834       C  0.79428104  0.69304903  0.77003622    -0.24200
H3835       H  0.79481990  0.66467147  0.63286625     0.05000
H3836       H  0.76497203  0.63702582  0.64349549     0.08200
H3837       H  0.79505637  0.63795533  0.65061988     0.08200
H3838       H  0.78466648  0.70460391  0.77105582     0.08200
H3839       H  0.81489927  0.70528049  0.77581126     0.08200
H3840       H  0.78535032  0.67770837  0.78744519     0.05000
C3841       C  0.84778901  0.87125042  0.72927985    -0.20800
C3842       C  0.85194806  0.85656389  0.75086481    -0.07400
C3843       C  0.84864638  0.85963503  0.78174121     0.13500
C3844       C  0.83892612  0.87551891  0.79020428    -0.20900
C3845       C  0.83280778  0.88862643  0.76841379    -0.07400
C3846       C  0.83820298  0.88727701  0.73772752     0.13500
C3847       C  0.83214699  0.90128777  0.71376221    -0.24200
H3848       H  0.85019661  0.86868685  0.70554169     0.14700
H3849       H  0.83475793  0.87662410  0.81376374     0.14800
C3850       C  0.85447430  0.84537407  0.80552899    -0.24200
H3851       H  0.83746046  0.89810759  0.69087525     0.05000
H3852       H  0.84297802  0.92218216  0.71834682     0.08200
H3853       H  0.81128714  0.89449734  0.71372902     0.08200
H3854       H  0.87501246  0.85090122  0.80420480     0.08200
H3855       H  0.84248994  0.82452989  0.80169034     0.08200
H3856       H  0.85056472  0.84960864  0.82863582     0.05000
C3857       C  0.85244482  0.82897763  0.96154069    -0.20800
C3858       C  0.87037297  0.82903630  0.98189644    -0.07400
C3859       C  0.87263792  0.83945411  0.01089951     0.13500
C3860       C  0.85634582  0.84879123  0.01919631    -0.20900
C3861       C  0.83729662  0.84756500  0.99945403    -0.07400
C3862       C  0.83597720  0.83816314  0.96974204     0.13500
C3863       C  0.81727887  0.83740732  0.94643795    -0.24200
H3864       H  0.85081080  0.82092751  0.93926318     0.14700
H3865       H  0.85765585  0.85580231  0.04197438     0.14800
C3866       C  0.89091200  0.83901735  0.03386824    -0.24200
H3867       H  0.82039002  0.83126062  0.92402531     0.05000
H3868       H  0.81967849  0.85678806  0.94363123     0.08200
H3869       H  0.79684866  0.82311340  0.45642047     0.08200
H3870       H  0.91089411  0.85011321  0.02533132     0.08200
H3871       H  0.89652213  0.83221964  0.53446766     0.08200
H3872       H  0.88998251  0.84743404  0.05572968     0.05000
C3873       C  0.90890421  0.79673220  0.57673509    -0.20800
C3874       C  0.89561336  0.77210376  0.56444062    -0.07400
C3875       C  0.88106302  0.75083440  0.58353254     0.13500
C3876       C  0.87885863  0.75491483  0.61443787    -0.20900
C3877       C  0.89102640  0.77981208  0.62640492    -0.07400
C3878       C  0.90695324  0.80086197  0.60748550     0.13500
C3879       C  0.92217323  0.82772777  0.61970084    -0.24200
H3880       H  0.92057961  0.81289475  0.56202939     0.14700
H3881       H  0.86668348  0.73879856  0.62894054     0.14800
C3882       C  0.86732196  0.72406164  0.57105760    -0.24200
H3883       H  0.93480282  0.84151774  0.60216893     0.05000
H3884       H  0.93451199  0.82814458  0.63865104     0.08200
H3885       H  0.90913051  0.83438150  0.62777216     0.08200
H3886       H  0.88144963  0.71960835  0.56095257     0.08200
H3887       H  0.85346203  0.72245778  0.55339212     0.08200
H3888       H  0.85659736  0.70958801  0.58892078     0.05000
C3889       C  0.84848863  0.76992339  0.86965291    -0.20800
C3890       C  0.87012296  0.76812209  0.87735962    -0.07400
C3891       C  0.88295210  0.76273062  0.85451397     0.13500
C3892       C  0.87505211  0.76108461  0.82439769    -0.20900
C3893       C  0.85463212  0.76478347  0.81611572    -0.07400
C3894       C  0.84019411  0.76775340  0.83939260     0.13500
C3895       C  0.81546518  0.76741388  0.83291164    -0.24200
H3896       H  0.83825255  0.77338805  0.88735707     0.14700
H3897       H  0.88567461  0.75775372  0.80709431     0.14800
C3898       C  0.90571203  0.75955660  0.86074694    -0.24200
H3899       H  0.80586511  0.76795954  0.85402108     0.05000
H3900       H  0.80209708  0.74956618  0.82070872     0.08200
H3901       H  0.81895771  0.78417590  0.81913302     0.08200
H3902       H  0.91057708  0.76082140  0.88505299     0.08200
H3903       H  0.92249544  0.77470475  0.84833164     0.08200
H3904       H  0.90170174  0.74053968  0.85258251     0.05000
C3905       C  0.69328417  0.51311938  0.95824046    -0.20800
C3906       C  0.70986641  0.50866415  0.94044389    -0.07400
C3907       C  0.70010499  0.49344456  0.91439137     0.13500
C3908       C  0.67464904  0.48496528  0.90541176    -0.20900
C3909       C  0.65851120  0.49121528  0.92186295    -0.07400
C3910       C  0.66773455  0.50438674  0.94964515     0.13500
C3911       C  0.65119819  0.50971710  0.97040988    -0.24200
H3912       H  0.70070230  0.52430079  0.97868677     0.14700
H3913       H  0.66778160  0.47433573  0.88455322     0.14800
C3914       C  0.71684752  0.48735035  0.89509713    -0.24200
H3915       H  0.66117337  0.51848051  0.99196474     0.05000
H3916       H  0.63340107  0.49152342  0.97608152     0.08200
H3917       H  0.64633242  0.52336826  0.95959005     0.08200
H3918       H  0.72356420  0.47624062  0.90852686     0.08200
H3919       H  0.73368363  0.50537978  0.88690071     0.08200
H3920       H  0.70633482  0.47572831  0.87510520     0.05000
C3921       C  0.86075013  0.65902146  0.93165900    -0.20800
C3922       C  0.85708740  0.64305834  0.95660705    -0.07400
C3923       C  0.86873216  0.65426576  0.98447756     0.13500
C3924       C  0.88250994  0.68120855  0.98709650    -0.20900
C3925       C  0.88529735  0.69711909  0.96234463    -0.07400
C3926       C  0.87486616  0.68585288  0.93413509     0.13500
C3927       C  0.87783998  0.70211743  0.90685447    -0.24200
H3928       H  0.85188520  0.65040224  0.91026707     0.14700
H3929       H  0.89028122  0.68988994  0.00882337     0.14800
C3930       C  0.86548276  0.63788638  0.01178587    -0.24200
H3931       H  0.86898961  0.69031069  0.88641454     0.05000
H3932       H  0.89854272  0.71519046  0.90224849     0.08200
H3933       H  0.84569710  0.71138853  0.43428928     0.08200
H3934       H  0.87390732  0.62558028  0.00726395     0.08200
H3935       H  0.84479900  0.62553272  0.01707525     0.08200
H3936       H  0.87518453  0.64970251  0.03196755     0.05000
C3937       C  0.82285984  0.49341081  0.89030913    -0.20800
C3938       C  0.81203550  0.48985989  0.91927289    -0.07400
C3939       C  0.80930942  0.46880001  0.93702562     0.13500
C3940       C  0.81887010  0.45330350  0.92604874    -0.20900
C3941       C  0.83142854  0.45836136  0.89815783    -0.07400
C3942       C  0.83266436  0.47815800  0.87966948     0.13500
C3943       C  0.84438950  0.48336122  0.84857168    -0.24200
H3944       H  0.82463747  0.50892047  0.87618521     0.14700
H3945       H  0.81794088  0.43809696  0.94014506     0.14800
C3946       C  0.79748389  0.46294505  0.96810549    -0.24200
H3947       H  0.84244800  0.49850332  0.83651729     0.05000
H3948       H  0.83457926  0.46561392  0.83489437     0.08200
H3949       H  0.86515965  0.48995342  0.85010441     0.08200
H3950       H  0.77738792  0.45887424  0.96671453     0.08200
H3951       H  0.80880233  0.47933198  0.98344333     0.08200
H3952       H  0.79701590  0.44586870  0.97836514     0.05000
C3953       C  0.77580829  0.57860941  0.84751626    -0.20800
C3954       C  0.79500305  0.57338463  0.85690582    -0.07400
C3955       C  0.80734240  0.56623785  0.83502513     0.13500
C3956       C  0.79908554  0.56317311  0.80479545    -0.20900
C3957       C  0.77852690  0.56647530  0.79620284    -0.07400
C3958       C  0.76725471  0.57500793  0.81762496     0.13500
C3959       C  0.74599356  0.58012713  0.80920226    -0.24200
H3960       H  0.76667228  0.58464501  0.86396566     0.14700
H3961       H  0.80778420  0.55685054  0.78810071     0.14800
C3962       C  0.82807804  0.56036195  0.84340825    -0.24200
H3963       H  0.74052192  0.58818847  0.82835211     0.05000
H3964       H  0.72871736  0.56192691  0.80263382     0.08200
H3965       H  0.75216379  0.59403348  0.79014856     0.08200
H3966       H  0.82051151  0.54450618  0.86012463     0.08200
H3967       H  0.84481363  0.57764692  0.85301855     0.08200
H3968       H  0.83489329  0.55431724  0.82354211     0.05000
C3969       C  0.75363252  0.54785658  0.56081838    -0.20800
C3970       C  0.77260611  0.56936497  0.54519072    -0.07400
C3971       C  0.78667952  0.59289652  0.56081560     0.13500
C3972       C  0.78109486  0.59411535  0.59146112    -0.20900
C3973       C  0.76191888  0.57246050  0.60666216    -0.07400
C3974       C  0.74846439  0.54890728  0.59121236     0.13500
C3975       C  0.72938194  0.52431338  0.60683420    -0.24200
H3976       H  0.74279790  0.52967954  0.54930726     0.14700
H3977       H  0.79166284  0.61201554  0.60356923     0.14800
C3978       C  0.80789534  0.61651080  0.54582061    -0.24200
H3979       H  0.72243628  0.50741446  0.59184126     0.05000
H3980       H  0.71240359  0.52544534  0.61377185     0.08200
H3981       H  0.73840175  0.52091198  0.62691774     0.08200
H3982       H  0.80003306  0.62248807  0.52674755     0.08200
H3983       H  0.82284996  0.61251677  0.53738083     0.08200
H3984       H  0.81723695  0.63284774  0.56173953     0.05000
C3985       C  0.17280125  0.52212170  0.61071976    -0.20800
C3986       C  0.17485031  0.51896369  0.57964528    -0.07400
C3987       C  0.16948316  0.53371201  0.55884701     0.13500
C3988       C  0.16084797  0.54989685  0.56967970    -0.20900
C3989       C  0.15801096  0.55236924  0.60067082    -0.07400
C3990       C  0.16471704  0.53881261  0.62145507     0.13500
C3991       C  0.16218885  0.54093823  0.65491093    -0.24200
H3992       H  0.17694503  0.51097604  0.62668678     0.14700
H3993       H  0.15546283  0.56013692  0.55378216     0.14800
C3994       C  0.17140484  0.53161597  0.52512202    -0.24200
H3995       H  0.16745791  0.52847045  0.66797076     0.05000
H3996       H  0.14207090  0.53520436  0.66058514     0.08200
H3997       H  0.17526483  0.56104581  0.66186863     0.08200
H3998       H  0.15881704  0.51151680  0.51783609     0.08200
H3999       H  0.19156211  0.53812579  0.51878177     0.08200
H4000       H  0.16542871  0.54372288  0.51248689     0.05000
C4001       C  0.09555208  0.58319594  0.96942753    -0.20800
C4002       C  0.10150850  0.56384779  0.96377689    -0.07400
C4003       C  0.10272741  0.54946282  0.98867086     0.13500
C4004       C  0.09947996  0.55439037  0.51732861    -0.20900
C4005       C  0.09573085  0.57506445  0.52313243    -0.07400
C4006       C  0.09212796  0.58931285  0.99912253     0.13500
C4007       C  0.08828420  0.61046194  0.50298845    -0.24200
H4008       H  0.09405824  0.59393770  0.95059451     0.14700
H4009       H  0.10032653  0.54323611  0.53614202     0.14800
C4010       C  0.10688429  0.52700829  0.98483331    -0.24200
H4011       H  0.08254949  0.61738568  0.98206016     0.05000
H4012       H  0.10374694  0.62626519  0.51605594     0.08200
H4013       H  0.06983886  0.60284376  0.51529402     0.08200
H4014       H  0.12649442  0.53351150  0.97629407     0.08200
H4015       H  0.09229672  0.51323366  0.96891818     0.08200
H4016       H  0.10363679  0.51465764  0.50544773     0.05000
C4017       C  0.11910065  0.55234456  0.76303719    -0.20800
C4018       C  0.09381021  0.53998680  0.77366846    -0.07400
C4019       C  0.07376727  0.53571228  0.75365340     0.13500
C4020       C  0.07964252  0.54335647  0.72311580    -0.20900
C4021       C  0.10518125  0.55604578  0.71273661    -0.07400
C4022       C  0.12515166  0.56105737  0.73326329     0.13500
C4023       C  0.15297020  0.57551717  0.72404074    -0.24200
H4024       H  0.13444566  0.55594248  0.77862489     0.14700
H4025       H  0.06440247  0.54020632  0.70755516     0.14800
C4026       C  0.04640658  0.52291637  0.76432629    -0.24200
H4027       H  0.16586083  0.57667867  0.74273881     0.05000
H4028       H  0.15866453  0.59542023  0.71735130     0.08200
H4029       H  0.15597473  0.56564360  0.70494106     0.08200
H4030       H  0.04450180  0.53465945  0.78220034     0.08200
H4031       H  0.04061849  0.50361829  0.77358757     0.08200
H4032       H  0.03306835  0.52065051  0.74565000     0.05000
C4033       C  0.81398217  0.37661197  0.67835481    -0.20800
C4034       C  0.82727273  0.38557788  0.65095909    -0.07400
C4035       C  0.82875342  0.36796438  0.63125960     0.13500
C4036       C  0.81966564  0.34271503  0.64095228    -0.20900
C4037       C  0.80816378  0.33413043  0.66928613    -0.07400
C4038       C  0.80444763  0.35101618  0.68780621     0.13500
C4039       C  0.79237436  0.34269607  0.71854517    -0.24200
H4040       H  0.81280074  0.39007946  0.69338419     0.14700
H4041       H  0.82308201  0.33011203  0.62699820     0.14800
C4042       C  0.84032687  0.37573417  0.60007438    -0.24200
H4043       H  0.79122616  0.35830709  0.73024097     0.05000
H4044       H  0.80391894  0.33706626  0.73284833     0.08200
H4045       H  0.77260587  0.32614134  0.71625402     0.08200
H4046       H  0.86118559  0.38964205  0.60142631     0.08200
H4047       H  0.83064736  0.38438437  0.58728147     0.08200
H4048       H  0.83796281  0.35901663  0.58704131     0.05000
C4049       C  0.87372365  0.52240838  0.54050698    -0.20800
C4050       C  0.86929273  0.52636509  0.57055423    -0.07400
C4051       C  0.85839464  0.54184581  0.57663041     0.13500
C4052       C  0.84982831  0.55074203  0.55242948    -0.20900
C4053       C  0.85204114  0.54466251  0.52245444    -0.07400
C4054       C  0.86529381  0.53141181  0.51631410     0.13500
C4055       C  0.87040155  0.52854104  0.98690583    -0.24200
H4056       H  0.88236836  0.51077188  0.53597906     0.14700
H4057       H  0.83984810  0.56111314  0.55698577     0.14800
C4058       C  0.85387024  0.54735654  0.60845361    -0.24200
H4059       H  0.88268130  0.51966410  0.98679675     0.05000
H4060       H  0.88094334  0.54718170  0.97482003     0.08200
H4061       H  0.85248974  0.51559647  0.97450592     0.08200
H4062       H  0.87248940  0.55804887  0.62049086     0.08200
H4063       H  0.84119081  0.52913582  0.62056877     0.08200
H4064       H  0.84453247  0.55920500  0.60893220     0.05000
C4065       C  0.91408770  0.46021946  0.74728040    -0.20800
C4066       C  0.89975641  0.47056692  0.73490725    -0.07400
C4067       C  0.88413805  0.47556877  0.75409496     0.13500
C4068       C  0.88295527  0.46990182  0.78486130    -0.20900
C4069       C  0.89662367  0.45895910  0.79719500    -0.07400
C4070       C  0.91267382  0.45424054  0.77825126     0.13500
C4071       C  0.92740197  0.44173652  0.78937239    -0.24200
H4072       H  0.92585345  0.45607501  0.73254731     0.14700
H4073       H  0.87040847  0.47312710  0.79929673     0.14800
C4074       C  0.86742371  0.48546615  0.74212880    -0.24200
H4075       H  0.92215916  0.42439851  0.77577955     0.05000
H4076       H  0.92339375  0.43569481  0.81327773     0.08200
H4077       H  0.94829514  0.45529748  0.78682792     0.08200
H4078       H  0.85359938  0.47161218  0.72562089     0.08200
H4079       H  0.87975046  0.50439966  0.73146889     0.08200
H4080       H  0.85618974  0.48797819  0.76023790     0.05000
C4081       C  0.90663028  0.44210110  0.53709035    -0.20800
C4082       C  0.88501348  0.44344730  0.54628223    -0.07400
C4083       C  0.86646831  0.44050548  0.52422868     0.13500
C4084       C  0.86938590  0.43717772  0.99547515    -0.20900
C4085       C  0.89185835  0.43819687  0.98561351    -0.07400
C4086       C  0.91016522  0.43793887  0.50668409     0.13500
C4087       C  0.93662972  0.44605362  0.99652624    -0.24200
H4088       H  0.92081296  0.44428227  0.55374557     0.14700
H4089       H  0.85444490  0.43337753  0.97910760     0.14800
C4090       C  0.84285459  0.44213994  0.53139840    -0.24200
H4091       H  0.94667741  0.44051424  0.51732283     0.05000
H4092       H  0.94561143  0.46137554  0.97911691     0.08200
H4093       H  0.93323694  0.42767429  0.98692020     0.08200
H4094       H  0.84852162  0.46095197  0.54152631     0.08200
H4095       H  0.83000870  0.42632538  0.54683461     0.08200
H4096       H  0.83144181  0.44041223  0.51085335     0.05000
C4097       C  0.98299835  0.51359905  0.62931014    -0.20800
C4098       C  0.96893282  0.52641015  0.62931894    -0.07400
C4099       C  0.98245984  0.55342687  0.62496225     0.13500
C4100       C  0.00949102  0.56667290  0.62208926    -0.20900
C4101       C  0.02344380  0.55376503  0.62374583    -0.07400
C4102       C  0.00975317  0.52667405  0.62665072     0.13500
C4103       C  0.02292840  0.51098357  0.62624803    -0.24200
H4104       H  0.97299236  0.49292884  0.63174718     0.14700
H4105       H  0.01985089  0.58731651  0.61925114     0.14800
C4106       C  0.96884461  0.56859176  0.62382432    -0.24200
H4107       H  0.00896412  0.49006933  0.62611757     0.05000
H4108       H  0.03499366  0.51489083  0.64672503     0.08200
H4109       H  0.03490126  0.51554372  0.60562215     0.08200
H4110       H  0.95849983  0.56620590  0.64536601     0.08200
H4111       H  0.95507413  0.56198221  0.60467118     0.08200
H4112       H  0.98245662  0.58939084  0.62050507     0.05000
C4113       C  0.81458886  0.52956889  0.69763658    -0.20800
C4114       C  0.78825157  0.51452362  0.69223290    -0.07400
C4115       C  0.77821755  0.48959342  0.68065506     0.13500
C4116       C  0.79515009  0.48065676  0.67366707    -0.20900
C4117       C  0.82184272  0.49609615  0.67817842    -0.07400
C4118       C  0.83154782  0.52087283  0.69077956     0.13500
C4119       C  0.85982815  0.53918401  0.69544085    -0.24200
H4120       H  0.82203720  0.54869571  0.70663990     0.14700
H4121       H  0.78759861  0.46184651  0.66375122     0.14800
C4122       C  0.74996319  0.47304166  0.67430690    -0.24200
H4123       H  0.86371634  0.55813710  0.70372888     0.05000
H4124       H  0.87033001  0.54249110  0.67384841     0.08200
H4125       H  0.86746411  0.53137370  0.71259567     0.08200
H4126       H  0.74375616  0.48289531  0.65794692     0.08200
H4127       H  0.73893880  0.46934667  0.69558031     0.08200
H4128       H  0.74535442  0.45428278  0.66459330     0.05000
C4129       C  0.02397327  0.83402831  0.88453009    -0.20800
C4130       C  0.01791888  0.82377789  0.85523203    -0.07400
C4131       C  0.99371025  0.80134893  0.85033490     0.13500
C4132       C  0.97572591  0.79164106  0.87404552    -0.20900
C4133       C  0.98122395  0.80354802  0.90229358    -0.07400
C4134       C  0.00611158  0.82412307  0.90802161     0.13500
C4135       C  0.01335341  0.83707266  0.93825333    -0.24200
H4136       H  0.04235640  0.85097609  0.88884966     0.14700
H4137       H  0.95705424  0.77500387  0.87037759     0.14800
C4138       C  0.98611089  0.78784808  0.82032213    -0.24200
H4139       H  0.03360170  0.85298282  0.93890924     0.05000
H4140       H  0.01084863  0.82304966  0.95617283     0.08200
H4141       H  0.00089994  0.84520129  0.94282789     0.08200
H4142       H  0.99979269  0.78143418  0.81405123     0.08200
H4143       H  0.98591153  0.80075034  0.80256051     0.08200
H4144       H  0.96660333  0.77064492  0.82105955     0.05000
C4145       C  0.97920519  0.84096897  0.77519587    -0.20800
C4146       C  0.99790793  0.85473652  0.75322322    -0.07400
C4147       C  0.99012421  0.85816822  0.72430333     0.13500
C4148       C  0.96381707  0.84556211  0.71725532    -0.20900
C4149       C  0.94507197  0.82984368  0.73854097    -0.07400
C4150       C  0.95297570  0.82812891  0.76823065     0.13500
C4151       C  0.93412069  0.81272546  0.79277527    -0.24200
H4152       H  0.98525331  0.83923948  0.79775984     0.14700
H4153       H  0.95798306  0.84771230  0.69473152     0.14800
C4154       C  0.00884012  0.87581271  0.70100066    -0.24200
H4155       H  0.94372087  0.81525079  0.81499715     0.05000
H4156       H  0.92454941  0.79206682  0.78723359     0.08200
H4157       H  0.91963555  0.81881324  0.79519214     0.08200
H4158       H  0.00787865  0.86470004  0.68068714     0.08200
H4159       H  0.02878824  0.88623473  0.70968053     0.08200
H4160       H  0.00370555  0.89044222  0.69432513     0.05000
C4161       C  0.14598761  0.81287970  0.81351517    -0.20800
C4162       C  0.13725496  0.78915113  0.79935520    -0.07400
C4163       C  0.11416445  0.77863806  0.78228017     0.13500
C4164       C  0.10120605  0.79262950  0.77913381    -0.20900
C4165       C  0.11099242  0.81698938  0.79208629    -0.07400
C4166       C  0.13349692  0.82695058  0.80988217     0.13500
C4167       C  0.14460514  0.85248503  0.82542619    -0.24200
H4168       H  0.16321903  0.82092398  0.82722611     0.14700
H4169       H  0.08405343  0.78508176  0.76532935     0.14800
C4170       C  0.10358940  0.75334319  0.76633023    -0.24200
H4171       H  0.16162231  0.85673933  0.83941712     0.05000
H4172       H  0.13003588  0.85232378  0.84063474     0.08200
H4173       H  0.15086127  0.86814660  0.80854552     0.08200
H4174       H  0.09857014  0.73777097  0.78308836     0.08200
H4175       H  0.11803570  0.75412253  0.75021929     0.08200
H4176       H  0.08593626  0.74853400  0.75333968     0.05000
C4177       C  0.16153206  0.64177577  0.87350114    -0.20800
C4178       C  0.15356530  0.62260152  0.85145607    -0.07400
C4179       C  0.15717253  0.62973079  0.82062132     0.13500
C4180       C  0.16746952  0.65552017  0.81256424    -0.20900
C4181       C  0.17366220  0.67457514  0.83436626    -0.07400
C4182       C  0.17122466  0.66768321  0.86537246     0.13500
C4183       C  0.17872836  0.68736316  0.88994067    -0.24200
H4184       H  0.15886537  0.63627843  0.89715021     0.14700
H4185       H  0.16934703  0.66057535  0.78879132     0.14800
C4186       C  0.15008010  0.61022631  0.79595065    -0.24200
H4187       H  0.17709596  0.67881587  0.91270243     0.05000
H4188       H  0.16595656  0.69564955  0.88952528     0.08200
H4189       H  0.19894468  0.70284302  0.88674454     0.08200
H4190       H  0.12902901  0.59704067  0.79564663     0.08200
H4191       H  0.16008185  0.59923512  0.79977490     0.08200
H4192       H  0.15563542  0.61932629  0.77325037     0.05000
C4193       C  0.12446160  0.66641956  0.74022176    -0.20800
C4194       C  0.13619389  0.69247703  0.73247795    -0.07400
C4195       C  0.13616397  0.69954581  0.70191473     0.13500
C4196       C  0.12702848  0.68056495  0.67955866    -0.20900
C4197       C  0.11837525  0.65491620  0.68705738    -0.07400
C4198       C  0.11599261  0.64755251  0.71778171     0.13500
C4199       C  0.10634805  0.62013902  0.72692703    -0.24200
H4200       H  0.12441025  0.66100795  0.76364385     0.14700
H4201       H  0.12863265  0.68605798  0.65594601     0.14800
C4202       C  0.14638084  0.72710449  0.69266966    -0.24200
H4203       H  0.10434877  0.61752047  0.75182699     0.05000
H4204       H  0.12017930  0.61434222  0.71953740     0.08200
H4205       H  0.08729667  0.60746622  0.71653063     0.08200
H4206       H  0.16731160  0.73870765  0.69690682     0.08200
H4207       H  0.13633667  0.73516980  0.70555648     0.08200
H4208       H  0.14326669  0.72885285  0.66822846     0.05000
C4209       C  0.19251388  0.70684816  0.54766101    -0.20800
C4210       C  0.21341490  0.72323467  0.56596505    -0.07400
C4211       C  0.21910451  0.71297137  0.59168875     0.13500
C4212       C  0.20218258  0.68714748  0.59997152    -0.20900
C4213       C  0.17969569  0.67169903  0.58324225    -0.07400
C4214       C  0.17554052  0.68141254  0.55604219     0.13500
C4215       C  0.15276541  0.66523924  0.53611690    -0.24200
H4216       H  0.18851746  0.71450413  0.52744783     0.14700
H4217       H  0.20547417  0.67964130  0.62076025     0.14800
C4218       C  0.24184564  0.72954716  0.61140372    -0.24200
H4219       H  0.15332250  0.67536683  0.51483726     0.05000
H4220       H  0.13474979  0.66049915  0.54799428     0.08200
H4221       H  0.15255553  0.64731525  0.53004672     0.08200
H4222       H  0.24014001  0.74576854  0.62033194     0.08200
H4223       H  0.25977531  0.73716186  0.59803183     0.08200
H4224       H  0.24323723  0.71861810  0.63089299     0.05000
C4225       C  0.37141965  0.86069213  0.61100266    -0.20800
C4226       C  0.38095162  0.84451706  0.60356017    -0.07400
C4227       C  0.36456365  0.82082259  0.58963200     0.13500
C4228       C  0.33932259  0.81453773  0.58220438    -0.20900
C4229       C  0.33007793  0.83143887  0.58808446    -0.07400
C4230       C  0.34640283  0.85468538  0.60341324     0.13500
C4231       C  0.33856005  0.87424046  0.61028641    -0.24200
H4232       H  0.38418806  0.87886507  0.62175555     0.14700
H4233       H  0.32708881  0.79663605  0.57066776     0.14800
C4234       C  0.37339154  0.80239311  0.58103685    -0.24200
H4235       H  0.35422285  0.89152632  0.62138768     0.05000
H4236       H  0.32194916  0.86593776  0.62589445     0.08200
H4237       H  0.33359035  0.88063886  0.58903381     0.08200
H4238       H  0.39357725  0.80922223  0.58757560     0.08200
H4239       H  0.36109275  0.78365882  0.59237327     0.08200
H4240       H  0.37173012  0.79953304  0.55620055     0.05000
C4241       C  0.24250024  0.79980000  0.69480079    -0.20800
C4242       C  0.22093881  0.79812977  0.70900929    -0.07400
C4243       C  0.20482055  0.80460139  0.69241386     0.13500
C4244       C  0.20989706  0.81085878  0.66153293    -0.20900
C4245       C  0.23098029  0.81141902  0.64744017    -0.07400
C4246       C  0.24789352  0.80665657  0.66446573     0.13500
C4247       C  0.27131083  0.80808801  0.65046676    -0.24200
H4248       H  0.25487766  0.79486405  0.70722337     0.14700
H4249       H  0.19698931  0.81454904  0.64812369     0.14800
C4250       C  0.18169419  0.80371703  0.70653916    -0.24200
H4251       H  0.28217654  0.80319387  0.66691806     0.05000
H4252       H  0.28425745  0.82790249  0.64239424     0.08200
H4253       H  0.26568207  0.79460021  0.63123463     0.08200
H4254       H  0.18785840  0.81778426  0.72521397     0.08200
H4255       H  0.16848122  0.78419112  0.71546830     0.08200
H4256       H  0.17090059  0.80858194  0.68994986     0.05000
C4257       C  0.22771056  0.78056540  0.93938106    -0.20800
C4258       C  0.21055374  0.78217422  0.95940622    -0.07400
C4259       C  0.18754048  0.77985067  0.94781260     0.13500
C4260       C  0.18241306  0.77596625  0.91662850    -0.20900
C4261       C  0.19994170  0.77492840  0.89674589    -0.07400
C4262       C  0.22279008  0.77696950  0.90840676     0.13500
C4263       C  0.24176767  0.77444371  0.88864569    -0.24200
H4264       H  0.24540794  0.78236555  0.94797866     0.14700
H4265       H  0.16487770  0.77426489  0.90761329     0.14800
C4266       C  0.16823530  0.78119812  0.96796313    -0.24200
H4267       H  0.25755570  0.77475127  0.90202434     0.05000
H4268       H  0.25075409  0.79059460  0.87232700     0.08200
H4269       H  0.23187073  0.75601336  0.87624102     0.08200
H4270       H  0.17687283  0.80061054  0.97787538     0.08200
H4271       H  0.16217322  0.76655571  0.98617830     0.08200
H4272       H  0.15081894  0.77765505  0.95528453     0.05000
C4273       C  0.02710413  0.86415962  0.54167720    -0.20800
C4274       C  0.04270786  0.88578796  0.52387705    -0.07400
C4275       C  0.03041727  0.89084394  0.99827331     0.13500
C4276       C  0.00447704  0.87362657  0.99108478    -0.20900
C4277       C  0.99050609  0.85198536  0.50821207    -0.07400
C4278       C  0.00127135  0.84724858  0.53441634     0.13500
C4279       C  0.98634523  0.82414641  0.55457355    -0.24200
H4280       H  0.03565942  0.85974085  0.56069018     0.14700
H4281       H  0.99652105  0.87708529  0.97081180     0.14800
C4282       C  0.04637528  0.91315939  0.97759073    -0.24200
H4283       H  0.99746563  0.82485344  0.57498630     0.05000
H4284       H  0.98170398  0.80634041  0.54234479     0.08200
H4285       H  0.96849898  0.82337446  0.56240181     0.08200
H4286       H  0.06254035  0.91145566  0.96832149     0.08200
H4287       H  0.05412557  0.93135491  0.99031633     0.08200
H4288       H  0.03494015  0.91395746  0.95831066     0.05000
C4289       C  0.17124196  0.86463714  0.54334437    -0.20800
C4290       C  0.18528776  0.89090477  0.53673201    -0.07400
C4291       C  0.21225403  0.90285709  0.53390521     0.13500
C4292       C  0.22433751  0.88810814  0.53779355    -0.20900
C4293       C  0.21014608  0.86165048  0.54443660    -0.07400
C4294       C  0.18297295  0.84984555  0.54706770     0.13500
C4295       C  0.16558872  0.82154239  0.55324734    -0.24200
H4296       H  0.15056541  0.85542859  0.54558860     0.14700
H4297       H  0.24500134  0.89734777  0.53563588     0.14800
C4298       C  0.22822255  0.93081799  0.52581357    -0.24200
H4299       H  0.14496858  0.81584667  0.55275291     0.05000
H4300       H  0.16948439  0.81656732  0.57608368     0.08200
H4301       H  0.16842057  0.81011031  0.53574254     0.08200
H4302       H  0.22657958  0.94264843  0.54377057     0.08200
H4303       H  0.22152352  0.93458233  0.50399599     0.08200
H4304       H  0.24883418  0.93684770  0.52342873     0.05000
C4305       C  0.11588185  0.88382377  0.92324350    -0.20800
C4306       C  0.13047596  0.90878098  0.93461523    -0.07400
C4307       C  0.14161310  0.92968118  0.91412077     0.13500
C4308       C  0.13663234  0.92513895  0.88307401    -0.20900
C4309       C  0.12122966  0.90027998  0.87186662    -0.07400
C4310       C  0.11116809  0.87924830  0.89219557     0.13500
C4311       C  0.09451555  0.85181809  0.88235905    -0.24200
H4312       H  0.10756306  0.86770989  0.93881784     0.14700
H4313       H  0.14415596  0.94119050  0.86752514     0.14800
C4314       C  0.15738694  0.95690984  0.92484096    -0.24200
H4315       H  0.10423896  0.84084719  0.88805690     0.05000
H4316       H  0.09024943  0.84981356  0.85786063     0.08200
H4317       H  0.07601776  0.84297115  0.89465530     0.08200
H4318       H  0.17486793  0.95966067  0.93663741     0.08200
H4319       H  0.14569110  0.96121308  0.94036410     0.08200
H4320       H  0.16366402  0.97086592  0.90582295     0.05000
C4321       C  0.07948187  0.86749531  0.63350850    -0.20800
C4322       C  0.10399018  0.87829090  0.62088129    -0.07400
C4323       C  0.12492224  0.88258489  0.63936815     0.13500
C4324       C  0.12136584  0.87922940  0.67087644    -0.20900
C4325       C  0.09694172  0.86975624  0.68379163    -0.07400
C4326       C  0.07557172  0.86238694  0.66452651     0.13500
C4327       C  0.04876346  0.85067140  0.67665075    -0.24200
H4328       H  0.06341078  0.86383480  0.61907711     0.14700
H4329       H  0.13763158  0.88395487  0.68544784     0.14800
C4330       C  0.15091886  0.89102933  0.62591668    -0.24200
H4331       H  0.03451570  0.84693320  0.65852573     0.05000
H4332       H  0.04812484  0.86410862  0.69289707     0.08200
H4333       H  0.04316622  0.83213744  0.68797559     0.08200
H4334       H  0.15764034  0.90877439  0.61233639     0.08200
H4335       H  0.14959043  0.87576982  0.61086265     0.08200
H4336       H  0.16545000  0.89467514  0.64363528     0.05000
C4337       C  0.50691335  0.17494668  0.63710704    -0.20800
C4338       C  0.51049780  0.18532754  0.66627396    -0.07400
C4339       C  0.53130168  0.18734320  0.68395775     0.13500
C4340       C  0.54663464  0.17772707  0.67261761    -0.20900
C4341       C  0.54153811  0.16558317  0.64454303    -0.07400
C4342       C  0.52189751  0.16488539  0.62618257     0.13500
C4343       C  0.51653399  0.15343468  0.59495583    -0.24200
H4344       H  0.49153733  0.17369367  0.62309428     0.14700
H4345       H  0.56168035  0.17820017  0.68660321     0.14800
C4346       C  0.53693763  0.19828950  0.71542692    -0.24200
H4347       H  0.50170265  0.15597582  0.58303065     0.05000
H4348       H  0.50938942  0.13256290  0.59625926     0.08200
H4349       H  0.53434604  0.16291852  0.58123268     0.08200
H4350       H  0.52021164  0.18676421  0.73036909     0.08200
H4351       H  0.54146396  0.21852839  0.71475810     0.08200
H4352       H  0.55368729  0.19806871  0.72566463     0.05000
C4353       C  0.18771912  0.00118242  0.65876888    -0.20800
C4354       C  0.20290956  0.02657041  0.64888075    -0.07400
C4355       C  0.20977262  0.03151985  0.61808840     0.13500
C4356       C  0.19955539  0.01100876  0.59762891    -0.20900
C4357       C  0.18171670  0.98585261  0.60694499    -0.07400
C4358       C  0.17664254  0.98079436  0.63830463     0.13500
C4359       C  0.15962832  0.95418983  0.65078163    -0.24200
H4360       H  0.18288276  0.99743652  0.68253511     0.14700
H4361       H  0.20396845  0.01506214  0.57382681     0.14800
C4362       C  0.22755915  0.05833885  0.60664522    -0.24200
H4363       H  0.15908622  0.95400818  0.67586698     0.05000
H4364       H  0.16732689  0.94180328  0.64389739     0.08200
H4365       H  0.13956403  0.94615763  0.64292471     0.08200
H4366       H  0.24592253  0.06693828  0.61937617     0.08200
H4367       H  0.21865174  0.07041953  0.60935077     0.08200
H4368       H  0.23197700  0.05849436  0.58228789     0.05000
C4369       C  0.34205216  0.12776958  0.68764238    -0.20800
C4370       C  0.35826268  0.14482157  0.70982674    -0.07400
C4371       C  0.34731722  0.14839387  0.73615668     0.13500
C4372       C  0.32055609  0.13551069  0.73935909    -0.20900
C4373       C  0.30421067  0.11928541  0.71672398    -0.07400
C4374       C  0.31509659  0.11500415  0.69070176     0.13500
C4375       C  0.29843771  0.09836552  0.66533756    -0.24200
H4376       H  0.35048058  0.12540199  0.66722186     0.14700
H4377       H  0.31227155  0.13881086  0.75931274     0.14800
C4378       C  0.36378780  0.16648627  0.76054341    -0.24200
H4379       H  0.31007215  0.09793180  0.64621469     0.05000
H4380       H  0.28612442  0.10585250  0.65669516     0.08200
H4381       H  0.28613330  0.07840596  0.67354368     0.08200
H4382       H  0.37366698  0.18633382  0.75157049     0.08200
H4383       H  0.37804961  0.16120364  0.76831554     0.08200
H4384       H  0.35228689  0.16590816  0.78037791     0.05000
C4385       C  0.15162614  0.00433027  0.77735157    -0.20800
C4386       C  0.14962998  0.01189226  0.74782843    -0.07400
C4387       C  0.13002821  0.99353439  0.72859150     0.13500
C4388       C  0.11451628  0.96810245  0.73879878    -0.20900
C4389       C  0.11835609  0.96036264  0.76724083    -0.07400
C4390       C  0.13653586  0.97885578  0.78710519     0.13500
C4391       C  0.14047320  0.97166572  0.81851403    -0.24200
H4392       H  0.16602782  0.01814046  0.79252539     0.14700
H4393       H  0.10044261  0.95378184  0.72376091     0.14800
C4394       C  0.12590747  0.99986083  0.69678275    -0.24200
H4395       H  0.15465185  0.98862766  0.83151371     0.05000
H4396       H  0.14777226  0.95810873  0.81728169     0.08200
H4397       H  0.12202659  0.96261418  0.83103042     0.08200
H4398       H  0.14328324  0.00555826  0.68294902     0.08200
H4399       H  0.12140119  0.01557006  0.69711215     0.08200
H4400       H  0.10965138  0.98317892  0.68550369     0.05000
C4401       C  0.45318341  0.83962359  0.81337605    -0.20800
C4402       C  0.44653298  0.83770333  0.84406387    -0.07400
C4403       C  0.45421236  0.82430483  0.86395965     0.13500
C4404       C  0.46954781  0.81459674  0.85292022    -0.20900
C4405       C  0.47796476  0.81856536  0.82284342    -0.07400
C4406       C  0.46883917  0.83037970  0.80260226     0.13500
C4407       C  0.47607544  0.83384525  0.76967182    -0.24200
H4408       H  0.44701066  0.84948021  0.79789846     0.14700
H4409       H  0.47599416  0.80501622  0.86820520     0.14800
C4410       C  0.44786646  0.82168590  0.89713284    -0.24200
H4411       H  0.46655871  0.84264880  0.75683579     0.05000
H4412       H  0.47027495  0.81495212  0.75944675     0.08200
H4413       H  0.49704519  0.84658490  0.76728840     0.08200
H4414       H  0.42674731  0.81056549  0.90024070     0.08200
H4415       H  0.45568394  0.84096204  0.90733388     0.08200
H4416       H  0.45621959  0.81150870  0.90949276     0.05000
C4417       C  0.41739099  0.89384359  0.71296157    -0.20800
C4418       C  0.44030256  0.89387042  0.70734190    -0.07400
C4419       C  0.45779952  0.89921718  0.73146050     0.13500
C4420       C  0.45139414  0.90323199  0.76057621    -0.20900
C4421       C  0.42776233  0.90162114  0.76671101    -0.07400
C4422       C  0.41071131  0.89732624  0.74228341     0.13500
C4423       C  0.38551343  0.89648823  0.74663651    -0.24200
H4424       H  0.40415145  0.89011302  0.69444636     0.14700
H4425       H  0.46463731  0.90663633  0.77898016     0.14800
C4426       C  0.48345833  0.90104970  0.72679846    -0.24200
H4427       H  0.37565680  0.89479249  0.72478787     0.05000
H4428       H  0.38884513  0.91435015  0.75773019     0.08200
H4429       H  0.37240882  0.87961733  0.76057998     0.08200
H4430       H  0.49426834  0.91525009  0.70874285     0.08200
H4431       H  0.48075240  0.88208964  0.72052094     0.08200
H4432       H  0.49537118  0.90723061  0.74761988     0.05000
C4433       C  0.46860765  0.89519103  0.96323432    -0.20800
C4434       C  0.44519917  0.89395016  0.95681050    -0.07400
C4435       C  0.43230188  0.89870930  0.98035893     0.13500
C4436       C  0.44229370  0.90311288  0.00974617    -0.20900
C4437       C  0.46672584  0.90496624  0.51727394    -0.07400
C4438       C  0.48060468  0.90254097  0.49291894     0.13500
C4439       C  0.50621403  0.90426823  0.49757602    -0.24200
H4440       H  0.47876156  0.89203346  0.94516199     0.14700
H4441       H  0.43338230  0.90721366  0.52935381     0.14800
C4442       C  0.40810382  0.89958573  0.97480535    -0.24200
H4443       H  0.51515933  0.90406496  0.47577596     0.05000
H4444       H  0.50387875  0.88768273  0.51107828     0.08200
H4445       H  0.51953281  0.92241441  0.50928941     0.08200
H4446       H  0.39213416  0.88027838  0.96877320     0.08200
H4447       H  0.41139652  0.91343545  0.95633107     0.08200
H4448       H  0.40201132  0.90580889  0.99514691     0.05000
C4449       C  0.34897167  0.89053124  0.95320310    -0.20800
C4450       C  0.34121602  0.87717885  0.92579582    -0.07400
C4451       C  0.31528333  0.85806507  0.92204468     0.13500
C4452       C  0.29860302  0.85056334  0.94678039    -0.20900
C4453       C  0.30728670  0.86110867  0.97561360    -0.07400
C4454       C  0.33245460  0.88241716  0.97848388     0.13500
C4455       C  0.34263588  0.89542172  0.00837989    -0.24200
H4456       H  0.36854138  0.90601612  0.95552399     0.14700
H4457       H  0.27904390  0.83495447  0.94404296     0.14800
C4458       C  0.30532630  0.84489731  0.89213851    -0.24200
H4459       H  0.36273236  0.91148622  0.00651248     0.05000
H4460       H  0.34227978  0.88147103  0.02513831     0.08200
H4461       H  0.33055395  0.90314929  0.51831963     0.08200
H4462       H  0.31481994  0.83391056  0.88605920     0.08200
H4463       H  0.30913807  0.85938902  0.87428897     0.08200
H4464       H  0.28433597  0.83131694  0.89282770     0.05000
C4465       C  0.28794121  0.78102024  0.83165187    -0.20800
C4466       C  0.27934346  0.78936614  0.80688875    -0.07400
C4467       C  0.29751984  0.81037952  0.78940022     0.13500
C4468       C  0.32293255  0.82447795  0.79931565    -0.20900
C4469       C  0.33088855  0.81805869  0.82603065    -0.07400
C4470       C  0.31365169  0.79522209  0.84150632     0.13500
C4471       C  0.32182417  0.78676620  0.86939764    -0.24200
H4472       H  0.27419795  0.76445618  0.84452992     0.14700
H4473       H  0.33640778  0.84162099  0.78706231     0.14800
C4474       C  0.29043498  0.81792804  0.75998957    -0.24200
H4475       H  0.30583456  0.76873671  0.87892186     0.05000
H4476       H  0.32839375  0.80173878  0.88704630     0.08200
H4477       H  0.33774942  0.78332261  0.86368603     0.08200
H4478       H  0.28223269  0.80115964  0.74478206     0.08200
H4479       H  0.27647345  0.82449292  0.76355042     0.08200
H4480       H  0.30742217  0.83378772  0.74853989     0.05000
C4481       C  0.62081966  0.17290266  0.92797264    -0.20800
C4482       C  0.61311427  0.16301363  0.89884725    -0.07400
C4483       C  0.63172196  0.16492773  0.87803113     0.13500
C4484       C  0.65735261  0.17520790  0.88750175    -0.20900
C4485       C  0.66484639  0.18403262  0.91712617    -0.07400
C4486       C  0.64644679  0.18342254  0.93737019     0.13500
C4487       C  0.65332652  0.19223793  0.96954875    -0.24200
H4488       H  0.60660046  0.17157257  0.94382107     0.14700
H4489       H  0.67137568  0.17532607  0.87215683     0.14800
C4490       C  0.62429112  0.15494120  0.84631279    -0.24200
H4491       H  0.63675184  0.19088732  0.98205022     0.05000
H4492       H  0.66907175  0.21251953  0.96998348     0.08200
H4493       H  0.65942407  0.18002023  0.98153708     0.08200
H4494       H  0.61580113  0.16522405  0.83452798     0.08200
H4495       H  0.61003904  0.13412400  0.84691416     0.08200
H4496       H  0.64111054  0.15774720  0.83303638     0.05000
C4497       C  0.45543162  0.98822182  0.84309390    -0.20800
C4498       C  0.44507612  0.97306029  0.86910554    -0.07400
C4499       C  0.44865290  0.98501905  0.89740180     0.13500
C4500       C  0.46267753  0.01191148  0.89904047    -0.20900
C4501       C  0.47404668  0.02713614  0.87323025    -0.07400
C4502       C  0.47027206  0.01510397  0.84484444     0.13500
C4503       C  0.48157705  0.03045885  0.81634596    -0.24200
H4504       H  0.45270929  0.97889947  0.82144210     0.14700
H4505       H  0.46553029  0.02109257  0.92080666     0.14800
C4506       C  0.43756013  0.96943962  0.92581421    -0.24200
H4507       H  0.47568511  0.01803489  0.79605921     0.05000
H4508       H  0.50283493  0.04070905  0.81754408     0.08200
H4509       H  0.47502106  0.04455021  0.81336459     0.08200
H4510       H  0.44612532  0.95717321  0.93006261     0.08200
H4511       H  0.41643890  0.95711902  0.92341337     0.08200
H4512       H  0.44148120  0.98183971  0.94586585     0.05000
C4513       C  0.51924712  0.07943341  0.49561177    -0.20800
C4514       C  0.52839966  0.09810875  0.97741608    -0.07400
C4515       C  0.54266644  0.12251460  0.99060425     0.13500
C4516       C  0.55411607  0.12681326  0.52026229    -0.20900
C4517       C  0.54262490  0.10520791  0.53943748    -0.07400
C4518       C  0.52490635  0.08103422  0.52677570     0.13500
C4519       C  0.51156086  0.05698665  0.54567647    -0.24200
H4520       H  0.50549275  0.06118520  0.48576641     0.14700
H4521       H  0.56798540  0.14538926  0.52922198     0.14800
C4522       C  0.55217600  0.14680853  0.97230875    -0.24200
H4523       H  0.52590179  0.05270484  0.55574213     0.05000
H4524       H  0.49805507  0.04013896  0.53202228     0.08200
H4525       H  0.50031985  0.05941881  0.56382188     0.08200
H4526       H  0.53584519  0.14865261  0.96411177     0.08200
H4527       H  0.56320407  0.14635933  0.95265835     0.08200
H4528       H  0.56483960  0.16420257  0.98567151     0.05000
C4529       C  0.55412356  0.09095999  0.78029258    -0.20800
C4530       C  0.55788016  0.11499272  0.78903470    -0.07400
C4531       C  0.56606632  0.13483636  0.76716241     0.13500
C4532       C  0.56862365  0.12962091  0.73703600    -0.20900
C4533       C  0.56357453  0.10530973  0.72808222    -0.07400
C4534       C  0.55680856  0.08585694  0.74995398     0.13500
C4535       C  0.55121566  0.05949509  0.74111422    -0.24200
H4536       H  0.54803414  0.07580472  0.79700501     0.14700
H4537       H  0.57432615  0.14460876  0.72012535     0.14800
C4538       C  0.57257817  0.16170831  0.77524293    -0.24200
H4539       H  0.54541328  0.04633454  0.76089285     0.05000
H4540       H  0.56859820  0.06063815  0.73107194     0.08200
H4541       H  0.53535679  0.05120869  0.72434361     0.08200
H4542       H  0.58692948  0.16907589  0.79379486     0.08200
H4543       H  0.55507188  0.16198224  0.78220467     0.08200
H4544       H  0.58088973  0.17507982  0.75575598     0.05000
C4545       C  0.45255174  0.15303996  0.80204606    -0.20800
C4546       C  0.45597466  0.14813184  0.77198042    -0.07400
C4547       C  0.46328994  0.12960260  0.76601987     0.13500
C4548       C  0.46944354  0.11852492  0.79032815    -0.20900
C4549       C  0.46864109  0.12568621  0.82012856    -0.07400
C4550       C  0.45898400  0.14220031  0.82616721     0.13500
C4551       C  0.45693038  0.14962560  0.85805612    -0.24200
H4552       H  0.44633001  0.16669267  0.80670495     0.14700
H4553       H  0.47722555  0.10610813  0.78592574     0.14800
C4554       C  0.46670259  0.12290490  0.73429350    -0.24200
H4555       H  0.44828615  0.16209810  0.85877232     0.05000
H4556       H  0.47623704  0.16032202  0.86851379     0.08200
H4557       H  0.44468156  0.13212977  0.87162529     0.08200
H4558       H  0.48122008  0.14035528  0.72217647     0.08200
H4559       H  0.44812452  0.11432350  0.72204500     0.08200
H4560       H  0.47334013  0.10875032  0.73405712     0.05000
C4561       C  0.48448956  0.18807226  0.95682617    -0.20800
C4562       C  0.49418709  0.21227904  0.94324109    -0.07400
C4563       C  0.51506318  0.22089676  0.92297315     0.13500
C4564       C  0.52382223  0.20402248  0.91466639    -0.20900
C4565       C  0.51206058  0.17877929  0.92598561    -0.07400
C4566       C  0.49292077  0.17121827  0.94851659     0.13500
C4567       C  0.48063473  0.14519008  0.96365828    -0.24200
H4568       H  0.46914214  0.18168647  0.97317971     0.14700
H4569       H  0.53860519  0.20994303  0.89760622     0.14800
C4570       C  0.52714057  0.24712580  0.90874206    -0.24200
H4571       H  0.46760554  0.14362464  0.98225884     0.05000
H4572       H  0.49556041  0.14182238  0.97365534     0.08200
H4573       H  0.46887018  0.12980566  0.94737332     0.08200
H4574       H  0.53548059  0.26197844  0.92656812     0.08200
H4575       H  0.51248155  0.24925326  0.89582566     0.08200
H4576       H  0.54280483  0.25046894  0.89295168     0.05000
C4577       C  0.53379435  0.34844580  0.93170268    -0.20800
C4578       C  0.51265885  0.33177332  0.91354472    -0.07400
C4579       C  0.50965307  0.34103063  0.88508394     0.13500
C4580       C  0.52548763  0.36701723  0.87769263    -0.20900
C4581       C  0.54463972  0.38414287  0.89737641    -0.07400
C4582       C  0.54987382  0.37444655  0.92385647     0.13500
C4583       C  0.57123592  0.39172466  0.94478383    -0.24200
H4584       H  0.53692475  0.34158724  0.95307668     0.14700
H4585       H  0.52213289  0.37436184  0.85678505     0.14800
C4586       C  0.48961227  0.32416133  0.86235455    -0.24200
H4587       H  0.57248289  0.38118636  0.96478255     0.05000
H4588       H  0.56776840  0.40700357  0.95285563     0.08200
H4589       H  0.58985591  0.40044501  0.93267131     0.08200
H4590       H  0.47010920  0.31823406  0.87082106     0.08200
H4591       H  0.49145006  0.30710899  0.85766718     0.08200
H4592       H  0.49186880  0.33426918  0.84052512     0.05000
C4593       C  0.43960683  0.25366860  0.83659484    -0.20800
C4594       C  0.42830449  0.23189712  0.85529781    -0.07400
C4595       C  0.41805775  0.20726295  0.84241536     0.13500
C4596       C  0.42042389  0.20522415  0.81123011    -0.20900
C4597       C  0.43324492  0.22713370  0.79301399    -0.07400
C4598       C  0.44276036  0.25162440  0.80566375     0.13500
C4599       C  0.45664026  0.27558433  0.78671795    -0.24200
H4600       H  0.44715194  0.27246173  0.84648937     0.14700
H4601       H  0.41347519  0.18652658  0.80127433     0.14800
C4602       C  0.40456406  0.18312453  0.86118937    -0.24200
H4603       H  0.46204772  0.29309639  0.80007633     0.05000
H4604       H  0.44416323  0.27484032  0.76776218     0.08200
H4605       H  0.47452260  0.27724030  0.77760649     0.08200
H4606       H  0.38849802  0.18272214  0.87377518     0.08200
H4607       H  0.41819033  0.18215213  0.87730533     0.08200
H4608       H  0.39649215  0.16567760  0.84695323     0.05000
C4609       C  0.41713112  0.22019965  0.56091800    -0.20800
C4610       C  0.43131511  0.21267004  0.54313136    -0.07400
C4611       C  0.44191703  0.19870008  0.55625222     0.13500
C4612       C  0.43919010  0.19370707  0.58735474    -0.20900
C4613       C  0.42694421  0.20319129  0.60568377    -0.07400
C4614       C  0.41536019  0.21624133  0.59228520     0.13500
C4615       C  0.40122607  0.22607211  0.61080955    -0.24200
H4616       H  0.40867421  0.23050505  0.55044868     0.14700
H4617       H  0.44779088  0.18345277  0.59764469     0.14800
C4618       C  0.45608731  0.18906986  0.53748232    -0.24200
H4619       H  0.39218907  0.23446883  0.59633791     0.05000
H4620       H  0.41471668  0.24132204  0.62631267     0.08200
H4621       H  0.38584014  0.21010912  0.62408726     0.08200
H4622       H  0.47346747  0.20542699  0.52738139     0.08200
H4623       H  0.44333459  0.17659991  0.51921222     0.08200
H4624       H  0.46233918  0.17770232  0.55120396     0.05000
C4625       C  0.16444046  0.05229088  0.51848600    -0.20800
C4626       C  0.17193484  0.06032651  0.98699138    -0.07400
C4627       C  0.17104915  0.04196074  0.96674803     0.13500
C4628       C  0.15968587  0.01618683  0.97586130    -0.20900
C4629       C  0.14922753  0.00801035  0.00494429    -0.07400
C4630       C  0.15338907  0.02657230  0.52798810     0.13500
C4631       C  0.14749515  0.02063785  0.56110298    -0.24200
H4632       H  0.16867098  0.06714069  0.53492795     0.14700
H4633       H  0.15987782  0.00250689  0.96036855     0.14800
C4634       C  0.18330702  0.04976288  0.93597954    -0.24200
H4635       H  0.15283041  0.03814322  0.57444569     0.05000
H4636       H  0.15839830  0.01186386  0.57036927     0.08200
H4637       H  0.12662060  0.00733145  0.56423143     0.08200
H4638       H  0.20410780  0.06375000  0.93843786     0.08200
H4639       H  0.17413949  0.05865712  0.92266480     0.08200
H4640       H  0.18126096  0.03310624  0.92309824     0.05000
C4641       C  0.34947610  0.22875610  0.97816912    -0.20800
C4642       C  0.35971343  0.22556349  0.95129686    -0.07400
C4643       C  0.34287293  0.21121922  0.92755599     0.13500
C4644       C  0.31624312  0.19889359  0.93211206    -0.20900
C4645       C  0.30583618  0.20060339  0.95971377    -0.07400
C4646       C  0.32275769  0.21638721  0.98279625     0.13500
C4647       C  0.31300569  0.21920334  0.01298813    -0.24200
H4648       H  0.36245561  0.23989448  0.99621557     0.14700
H4649       H  0.30342985  0.18739533  0.91413677     0.14800
C4650       C  0.35287198  0.20903276  0.89720787    -0.24200
H4651       H  0.32895636  0.23133264  0.02863843     0.05000
H4652       H  0.30132810  0.20008844  0.02377585     0.08200
H4653       H  0.30121406  0.22844899  0.00997339     0.08200
H4654       H  0.36345788  0.19850998  0.89946470     0.08200
H4655       H  0.36583036  0.22846083  0.88781945     0.08200
H4656       H  0.33707579  0.19845910  0.88075157     0.05000
C4657       C  0.13891277  0.16672093  0.98073061    -0.20800
C4658       C  0.15105995  0.16015753  0.49978670    -0.07400
C4659       C  0.14339382  0.15838214  0.53015333     0.13500
C4660       C  0.12742776  0.16815618  0.53849502    -0.20900
C4661       C  0.11969974  0.18039955  0.51721601    -0.07400
C4662       C  0.12352232  0.17707268  0.98877742     0.13500
C4663       C  0.11283279  0.18636529  0.96400403    -0.24200
H4664       H  0.14371696  0.16660678  0.95717043     0.14700
H4665       H  0.12233614  0.16768625  0.56203219     0.14800
C4666       C  0.15313843  0.14738950  0.55385494    -0.24200
H4667       H  0.11694841  0.18168071  0.94123680     0.05000
H4668       H  0.12160294  0.20749091  0.96492608     0.08200
H4669       H  0.09168390  0.17711736  0.96638717     0.08200
H4670       H  0.17437779  0.15893512  0.55490954     0.08200
H4671       H  0.14728489  0.12730954  0.54806815     0.08200
H4672       H  0.14544838  0.14745954  0.57658175     0.05000
C4673       C  0.25220563  0.13466682  0.60920269    -0.20800
C4674       C  0.23542801  0.13817055  0.62763739    -0.07400
C4675       C  0.22218670  0.14996979  0.61553126     0.13500
C4676       C  0.22471857  0.15637741  0.58479957    -0.20900
C4677       C  0.23959339  0.15072552  0.56537222    -0.07400
C4678       C  0.25437079  0.14056277  0.57814369     0.13500
C4679       C  0.27205588  0.13526390  0.55952319    -0.24200
H4680       H  0.26239728  0.12571835  0.61875838     0.14700
H4681       H  0.21401267  0.16490674  0.57574320     0.14800
C4682       C  0.20530024  0.15587975  0.63492546    -0.24200
H4683       H  0.28291399  0.12871198  0.57374420     0.05000
H4684       H  0.28624805  0.15301026  0.54759787     0.08200
H4685       H  0.26080946  0.11985007  0.54299692     0.08200
H4686       H  0.21668123  0.16811329  0.65410121     0.08200
H4687       H  0.18871370  0.13797158  0.64367561     0.08200
H4688       H  0.19749282  0.16632799  0.62207020     0.05000
C4689       C  0.20073971  0.10801688  0.85561998    -0.20800
C4690       C  0.22069282  0.11417912  0.87635205    -0.07400
C4691       C  0.24352772  0.11538011  0.86604560     0.13500
C4692       C  0.24606311  0.11144978  0.83512654    -0.20900
C4693       C  0.22655396  0.10683040  0.81433963    -0.07400
C4694       C  0.20338033  0.10445405  0.82493697     0.13500
C4695       C  0.18115125  0.09791604  0.80399694    -0.24200
H4696       H  0.18299842  0.10651017  0.86338025     0.14700
H4697       H  0.26371840  0.11302357  0.82693902     0.14800
C4698       C  0.26569444  0.12197436  0.88703580    -0.24200
H4699       H  0.16401074  0.09529217  0.81640204     0.05000
H4700       H  0.17569592  0.07979236  0.79196595     0.08200
H4701       H  0.18646953  0.11361094  0.78736584     0.08200
H4702       H  0.25974458  0.10710469  0.90494171     0.08200
H4703       H  0.27219686  0.14093324  0.89747796     0.08200
H4704       H  0.28228058  0.12297414  0.87494588     0.05000
C4705       C  0.44649059  0.63358815  0.60394309    -0.20800
C4706       C  0.44729850  0.61375942  0.58821802    -0.07400
C4707       C  0.46232420  0.62002755  0.56152395     0.13500
C4708       C  0.47794905  0.64576240  0.55336645    -0.20900
C4709       C  0.47881203  0.66555341  0.57053432    -0.07400
C4710       C  0.46201093  0.65948208  0.59521869     0.13500
C4711       C  0.46114915  0.68023564  0.61287522    -0.24200
H4712       H  0.43459052  0.62897182  0.62389408     0.14700
H4713       H  0.49033494  0.65060173  0.53379838     0.14800
C4714       C  0.46217532  0.59999135  0.54115990    -0.24200
H4715       H  0.44727622  0.67223307  0.63185531     0.05000
H4716       H  0.45521079  0.69110173  0.59778470     0.08200
H4717       H  0.48035566  0.69357760  0.62232816     0.08200
H4718       H  0.44217961  0.58581291  0.53490119     0.08200
H4719       H  0.47150496  0.59030214  0.55238446     0.08200
H4720       H  0.47280113  0.60852243  0.51986985     0.05000
C4721       C  0.28967576  0.48662865  0.54544528    -0.20800
C4722       C  0.27697907  0.49849726  0.55804073    -0.07400
C4723       C  0.29099741  0.52043413  0.57614165     0.13500
C4724       C  0.31687340  0.52859578  0.58288512    -0.20900
C4725       C  0.32851846  0.51482299  0.57257881    -0.07400
C4726       C  0.31486332  0.49403561  0.55270341     0.13500
C4727       C  0.32532710  0.47812178  0.53941898    -0.24200
H4728       H  0.27933836  0.47010703  0.53100537     0.14700
H4729       H  0.32731523  0.54442425  0.59829169     0.14800
C4730       C  0.27847443  0.53412618  0.58993444    -0.24200
H4731       H  0.31352490  0.45795595  0.54725744     0.05000
H4732       H  0.34545854  0.48466414  0.54534867     0.08200
H4733       H  0.32423734  0.47855215  0.51438803     0.08200
H4734       H  0.26218548  0.52066994  0.60444466     0.08200
H4735       H  0.27134807  0.54176003  0.57180136     0.08200
H4736       H  0.29213921  0.55048093  0.60411877     0.05000
C4737       C  0.44370265  0.52745932  0.50652279    -0.20800
C4738       C  0.42367568  0.52841144  0.52156160    -0.07400
C4739       C  0.40970557  0.53795153  0.50574794     0.13500
C4740       C  0.41327216  0.54213982  0.97620083    -0.20900
C4741       C  0.43346557  0.54190620  0.96091527    -0.07400
C4742       C  0.44843469  0.53342147  0.97652195     0.13500
C4743       C  0.47073874  0.53330076  0.96152415    -0.24200
H4744       H  0.45471242  0.52058251  0.51870727     0.14700
H4745       H  0.40176826  0.54868089  0.96450731     0.14800
C4746       C  0.38952907  0.54184033  0.52080677    -0.24200
H4747       H  0.48079056  0.52687090  0.97728798     0.05000
H4748       H  0.48481032  0.55292592  0.95357052     0.08200
H4749       H  0.46383452  0.52001031  0.94203182     0.08200
H4750       H  0.39745993  0.55355261  0.54147500     0.08200
H4751       H  0.37280416  0.52313634  0.52663821     0.08200
H4752       H  0.38248868  0.55184614  0.50583515     0.05000
C4753       C  0.45995977  0.56379294  0.71942286    -0.20800
C4754       C  0.43640832  0.56130003  0.71032501    -0.07400
C4755       C  0.42021750  0.56257924  0.73287299     0.13500
C4756       C  0.42773598  0.56548335  0.76322153    -0.20900
C4757       C  0.45084759  0.56730265  0.77224217    -0.07400
C4758       C  0.46739375  0.56678959  0.75002589     0.13500
C4759       C  0.49237880  0.56832864  0.75844055    -0.24200
H4760       H  0.47241860  0.56278601  0.70260260     0.14700
H4761       H  0.41532044  0.56633832  0.78026962     0.14800
C4762       C  0.39485069  0.56093564  0.72588137    -0.24200
H4763       H  0.50213413  0.56611970  0.73843165     0.05000
H4764       H  0.48878806  0.55284495  0.77480042     0.08200
H4765       H  0.50561162  0.58725181  0.76859592     0.08200
H4766       H  0.38089665  0.54161389  0.71720143     0.08200
H4767       H  0.39771493  0.57596628  0.70919623     0.08200
H4768       H  0.38602743  0.56395462  0.74625814     0.05000
C4769       C  0.65908104  0.49551162  0.63772433    -0.20800
C4770       C  0.66827999  0.48811359  0.66257558    -0.07400
C4771       C  0.65242111  0.46380087  0.67599529     0.13500
C4772       C  0.62672416  0.44882858  0.66621554    -0.20900
C4773       C  0.61676277  0.45793042  0.64366668    -0.07400
C4774       C  0.63372045  0.48095196  0.62806274     0.13500
C4775       C  0.62533718  0.49116083  0.60178916    -0.24200
H4776       H  0.67122090  0.51411006  0.62739114     0.14700
H4777       H  0.61395972  0.43095901  0.67769903     0.14800
C4778       C  0.66188801  0.45451122  0.70192559    -0.24200
H4779       H  0.64191726  0.50754815  0.59041795     0.05000
H4780       H  0.61256567  0.49823775  0.60958294     0.08200
H4781       H  0.61537634  0.47596650  0.58470806     0.08200
H4782       H  0.66739000  0.46796593  0.72117973     0.08200
H4783       H  0.67880460  0.45323216  0.69462497     0.08200
H4784       H  0.64693637  0.43523815  0.70991496     0.05000
C4785       C  0.55066636  0.43445465  0.73852149    -0.20800
C4786       C  0.53062053  0.43764357  0.72791462    -0.07400
C4787       C  0.51585485  0.44258953  0.74847113     0.13500
C4788       C  0.52199108  0.44470792  0.77945848    -0.20900
C4789       C  0.54225665  0.44153050  0.79028256    -0.07400
C4790       C  0.55662895  0.43601734  0.76920497     0.13500
C4791       C  0.57862523  0.43201881  0.77805133    -0.24200
H4792       H  0.56173736  0.43048513  0.72242990     0.14700
H4793       H  0.51096149  0.44896130  0.79523252     0.14800
C4794       C  0.49435324  0.44651869  0.73767782    -0.24200
H4795       H  0.58760160  0.42851008  0.75817160     0.05000
H4796       H  0.57163331  0.41498488  0.79302956     0.08200
H4797       H  0.59390492  0.44929996  0.78941600     0.08200
H4798       H  0.47931174  0.42884847  0.72659095     0.08200
H4799       H  0.50186830  0.46268161  0.72127202     0.08200
H4800       H  0.48529553  0.45102579  0.75664170     0.05000
C4801       C  0.56974256  0.45314549  0.98819925    -0.20800
C4802       C  0.56189398  0.46997973  0.97799104    -0.07400
C4803       C  0.54985260  0.47932939  0.49750019     0.13500
C4804       C  0.54836684  0.47349638  0.52849791    -0.20900
C4805       C  0.55853860  0.45866692  0.54021741    -0.07400
C4806       C  0.57148634  0.45047037  0.52019374     0.13500
C4807       C  0.58320818  0.43450169  0.52984985    -0.24200
H4808       H  0.57694091  0.44503140  0.97189780     0.14700
H4809       H  0.53861786  0.47998643  0.54341175     0.14800
C4810       C  0.54609893  0.50095984  0.98841267    -0.24200
H4811       H  0.59266906  0.43059698  0.51079854     0.05000
H4812       H  0.56806835  0.41559260  0.53850368     0.08200
H4813       H  0.59813937  0.44469930  0.54727221     0.08200
H4814       H  0.52995009  0.49164518  0.97212225     0.08200
H4815       H  0.56258966  0.51756058  0.97725325     0.08200
H4816       H  0.52929102  0.50001620  0.50366876     0.05000
C4817       C  0.46058909  0.33359777  0.56883623    -0.20800
C4818       C  0.47806788  0.35896723  0.56037000    -0.07400
C4819       C  0.48363356  0.36505288  0.52931577     0.13500
C4820       C  0.47426338  0.34514673  0.50820261    -0.20900
C4821       C  0.45942186  0.31945568  0.51731660    -0.07400
C4822       C  0.45141578  0.31369807  0.54772331     0.13500
C4823       C  0.43393142  0.28657825  0.55824058    -0.24200
H4824       H  0.45589891  0.32893856  0.59250142     0.14700
H4825       H  0.47995968  0.34966505  0.48473305     0.14800
C4826       C  0.49977933  0.39214723  0.51770003    -0.24200
H4827       H  0.42833636  0.28576860  0.58227058     0.05000
H4828       H  0.44943005  0.27510220  0.05676328     0.08200
H4829       H  0.41615110  0.27761353  0.54439218     0.08200
H4830       H  0.50423352  0.40674194  0.53533769     0.08200
H4831       H  0.48916414  0.39575227  0.49958100     0.08200
H4832       H  0.51800079  0.39483947  0.50819381     0.05000
C4833       C  0.44740554  0.43951361  0.62991145    -0.20800
C4834       C  0.47409894  0.45429215  0.62530350    -0.07400
C4835       C  0.48506434  0.48080184  0.61852459     0.13500
C4836       C  0.46951119  0.49191160  0.61845882    -0.20900
C4837       C  0.44313077  0.47743851  0.62414036    -0.07400
C4838       C  0.43175610  0.45076465  0.62921556     0.13500
C4839       C  0.40340414  0.43437533  0.63499799    -0.24200
H4840       H  0.43885676  0.41924994  0.63492174     0.14700
H4841       H  0.47803317  0.51220648  0.61353534     0.14800
C4842       C  0.51303319  0.49764296  0.61042705    -0.24200
H4843       H  0.39783081  0.41412838  0.63968529     0.05000
H4844       H  0.39247096  0.43464317  0.61490296     0.08200
H4845       H  0.39797774  0.44178369  0.65483056     0.08200
H4846       H  0.51810944  0.48883981  0.59173924     0.08200
H4847       H  0.52537522  0.50048859  0.63035970     0.08200
H4848       H  0.51738602  0.51697499  0.60272582     0.05000
C4849       C  0.49380111  0.30630848  0.70783357    -0.20800
C4850       C  0.49398614  0.28849527  0.68775940    -0.07400
C4851       C  0.50389640  0.29662753  0.65846161     0.13500
C4852       C  0.51241326  0.32210852  0.64956974    -0.20900
C4853       C  0.51085931  0.33971233  0.66907417    -0.07400
C4854       C  0.50218434  0.33176612  0.69907192     0.13500
C4855       C  0.50145983  0.34971582  0.72207503    -0.24200
H4856       H  0.48608059  0.29994313  0.73027890     0.14700
H4857       H  0.51903391  0.32783988  0.62658858     0.14800
C4858       C  0.50392692  0.27802930  0.63595990    -0.24200
H4859       H  0.49605962  0.34069304  0.74482737     0.05000
H4860       H  0.48699679  0.35509164  0.71553011     0.08200
H4861       H  0.52069470  0.36717441  0.72395038     0.08200
H4862       H  0.48401036  0.26208322  0.63222123     0.08200
H4863       H  0.51584896  0.27011714  0.64463604     0.08200
H4864       H  0.51186510  0.28736144  0.61380919     0.05000
C4865       C  0.18960515  0.50768578  0.79433566    -0.20800
C4866       C  0.20938685  0.51061494  0.81368984    -0.07400
C4867       C  0.21414456  0.52502668  0.84049265     0.13500
C4868       C  0.19768162  0.53439042  0.84807064    -0.20900
C4869       C  0.17621944  0.52887065  0.83013667    -0.07400
C4870       C  0.17282528  0.51632217  0.80230183     0.13500
C4871       C  0.15118318  0.51144793  0.78115657    -0.24200
H4872       H  0.18627032  0.49709994  0.77356474     0.14700
H4873       H  0.20019270  0.54388445  0.86956910     0.14800
C4874       C  0.23479663  0.52913644  0.86281947    -0.24200
H4875       H  0.15183101  0.50194071  0.76005130     0.05000
H4876       H  0.15274379  0.52995436  0.77479299     0.08200
H4877       H  0.13235664  0.49885264  0.79199889     0.08200
H4878       H  0.24806342  0.55001150  0.86580895     0.08200
H4879       H  0.24627954  0.52042198  0.85581308     0.08200
H4880       H  0.22589198  0.52058604  0.88495043     0.05000
C4881       C  0.24088789  0.44304904  0.91770340    -0.20800
C4882       C  0.22023488  0.43543344  0.89766455    -0.07400
C4883       C  0.19513004  0.42558034  0.90936905     0.13500
C4884       C  0.19162184  0.42489633  0.94076932    -0.20900
C4885       C  0.21258344  0.43438107  0.96052519    -0.07400
C4886       C  0.23743131  0.44312274  0.94897401     0.13500
C4887       C  0.26040368  0.45315432  0.96957140    -0.24200
H4888       H  0.26005877  0.45033651  0.90878431     0.14700
H4889       H  0.17265472  0.41849817  0.94984982     0.14800
C4890       C  0.17197796  0.41582526  0.88905333    -0.24200
H4891       H  0.27827606  0.45845444  0.95690937     0.05000
H4892       H  0.25740296  0.43821475  0.98645876     0.08200
H4893       H  0.26321613  0.47053785  0.98136822     0.08200
H4894       H  0.17098166  0.40071145  0.87399739     0.08200
H4895       H  0.17304225  0.43174760  0.87527715     0.08200
H4896       H  0.15386433  0.40742370  0.90221451     0.05000
C4897       C  0.20978929  0.43074703  0.69369209    -0.20800
C4898       C  0.20425447  0.44707387  0.71019846    -0.07400
C4899       C  0.19216111  0.45916013  0.69576428     0.13500
C4900       C  0.18586940  0.45454187  0.66498801    -0.20900
C4901       C  0.19241541  0.43905505  0.64812174    -0.07400
C4902       C  0.20457244  0.42701475  0.66267160     0.13500
C4903       C  0.21216556  0.41025580  0.64576693    -0.24200
H4904       H  0.21935194  0.42180195  0.70488655     0.14700
H4905       H  0.17681410  0.46396261  0.65371519     0.14800
C4906       C  0.18575046  0.47675633  0.71273416    -0.24200
H4907       H  0.22028463  0.40147481  0.66110344     0.05000
H4908       H  0.22705248  0.42174374  0.62870306     0.08200
H4909       H  0.19514403  0.39453423  0.63445498     0.08200
H4910       H  0.20357827  0.49358226  0.72120042     0.08200
H4911       H  0.17301445  0.46623320  0.73204479     0.08200
H4912       H  0.17569365  0.48400382  0.69816142     0.05000
C4913       C  0.29651588  0.46157910  0.70192711    -0.20800
C4914       C  0.30573846  0.46615388  0.73174318    -0.07400
C4915       C  0.33193428  0.47421524  0.73716785     0.13500
C4916       C  0.34849211  0.47940270  0.71245202    -0.20900
C4917       C  0.33954043  0.47705880  0.68271655    -0.07400
C4918       C  0.31312330  0.46725112  0.67738384     0.13500
C4919       C  0.30264147  0.46416409  0.64571846    -0.24200
H4920       H  0.27641496  0.45501918  0.69771137     0.14700
H4921       H  0.36889348  0.48747551  0.71631627     0.14800
C4922       C  0.34304946  0.47940931  0.76861749    -0.24200
H4923       H  0.28145178  0.45556354  0.64560716     0.05000
H4924       H  0.30739148  0.45146622  0.63265404     0.08200
H4925       H  0.31105187  0.48310096  0.63430682     0.08200
H4926       H  0.33366999  0.46148931  0.78222564     0.08200
H4927       H  0.34009869  0.49422759  0.77956445     0.08200
H4928       H  0.36399251  0.48649405  0.76844003     0.05000
C4929       C  0.32984216  0.51705298  0.86897196    -0.20800
C4930       C  0.32365104  0.52139304  0.83965741    -0.07400
C4931       C  0.34239118  0.54336706  0.82345098     0.13500
C4932       C  0.36712228  0.55848004  0.83574086    -0.20900
C4933       C  0.37382007  0.55223353  0.86346364    -0.07400
C4934       C  0.35461412  0.53210368  0.88099944     0.13500
C4935       C  0.36023078  0.52633326  0.91241049    -0.24200
H4936       H  0.31556875  0.50105140  0.88214652     0.14700
H4937       H  0.38191078  0.57408133  0.82254040     0.14800
C4938       C  0.33732651  0.55060638  0.79257310    -0.24200
H4939       H  0.34273644  0.51085113  0.92349915     0.05000
H4940       H  0.36767185  0.54377881  0.92653092     0.08200
H4941       H  0.37459732  0.52001260  0.91172992     0.08200
H4942       H  0.35402410  0.56856465  0.78397064     0.08200
H4943       H  0.32077856  0.55384992  0.79361183     0.08200
H4944       H  0.33346878  0.53528019  0.77611447     0.05000
C4945       C  0.01338382  0.16350049  0.72715170    -0.20800
C4946       C  0.99460619  0.15516683  0.74982691    -0.07400
C4947       C  0.00209724  0.15554697  0.78023853     0.13500
C4948       C  0.02831939  0.16561297  0.78717541    -0.20900
C4949       C  0.04731775  0.17620981  0.76462060    -0.07400
C4950       C  0.03956117  0.17456419  0.73409451     0.13500
C4951       C  0.05865185  0.18421323  0.70855030    -0.24200
H4952       H  0.00768931  0.16276988  0.70374856     0.14700
H4953       H  0.03413779  0.16654314  0.81053160     0.14800
C4954       C  0.98260023  0.14527764  0.80533587    -0.24200
H4955       H  0.04909502  0.18079398  0.68617113     0.05000
H4956       H  0.06949283  0.17388406  0.70898410     0.08200
H4957       H  0.07199903  0.20514379  0.71044894     0.08200
H4958       H  0.96790124  0.12505097  0.80063016     0.08200
H4959       H  0.97313861  0.15690762  0.80735780     0.08200
H4960       H  0.99162242  0.14585198  0.82747206     0.05000
C4961       C  0.19935122  0.33099656  0.77084906    -0.20800
C4962       C  0.18296346  0.31560877  0.79430185    -0.07400
C4963       C  0.18079076  0.32780425  0.82045972     0.13500
C4964       C  0.19423637  0.35469475  0.82198660    -0.20900
C4965       C  0.21002286  0.37001456  0.79830108    -0.07400
C4966       C  0.21272615  0.35801253  0.77242567     0.13500
C4967       C  0.22855983  0.37359039  0.74587057    -0.24200
H4968       H  0.20102981  0.32186457  0.75068728     0.14700
H4969       H  0.19226197  0.36393448  0.84189075     0.14800
C4970       C  0.16484680  0.31275461  0.84726858    -0.24200
H4971       H  0.22785315  0.36119460  0.72703047     0.05000
H4972       H  0.24890884  0.38573368  0.75278334     0.08200
H4973       H  0.22117365  0.38601172  0.73733345     0.08200
H4974       H  0.17110029  0.29925641  0.85519473     0.08200
H4975       H  0.14421343  0.30201253  0.84111509     0.08200
H4976       H  0.16691931  0.32541667  0.86646295     0.05000
C4977       C  0.13872136  0.13971698  0.75197485    -0.20800
C4978       C  0.15302429  0.16631801  0.74636464    -0.07400
C4979       C  0.17497716  0.17588519  0.72751881     0.13500
C4980       C  0.18351557  0.15945762  0.71814305    -0.20900
C4981       C  0.17084461  0.13338700  0.72607438    -0.07400
C4982       C  0.14721930  0.12303829  0.74176072     0.13500
C4983       C  0.13127128  0.09481150  0.74849095    -0.24200
H4984       H  0.12158408  0.13212840  0.76573023     0.14700
H4985       H  0.20093819  0.16755713  0.70483853     0.14800
C4986       C  0.19053911  0.20331915  0.71664684    -0.24200
H4987       H  0.11355777  0.09015953  0.76111793     0.05000
H4988       H  0.14236388  0.08838845  0.76231948     0.08200
H4989       H  0.12545298  0.08394177  0.72700781     0.08200
H4990       H  0.21017484  0.21228978  0.72635109     0.08200
H4991       H  0.18218987  0.21533716  0.72219821     0.08200
H4992       H  0.19200948  0.20359530  0.69162432     0.05000
C4993       C  0.19476309  0.21588566  0.91063871    -0.20800
C4994       C  0.20867747  0.20370056  0.90361506    -0.07400
C4995       C  0.21513004  0.20261488  0.87328238     0.13500
C4996       C  0.20585198  0.21207878  0.85038590    -0.20900
C4997       C  0.18995987  0.22213974  0.85723931    -0.07400
C4998       C  0.18519039  0.22501713  0.88772800     0.13500
C4999       C  0.16853423  0.23604820  0.89599461    -0.24200
H5000       H  0.18959809  0.21636184  0.93396198     0.14700
H5001       H  0.20915656  0.20959005  0.82691635     0.14800
C5002       C  0.23014983  0.18978281  0.86493130    -0.24200
H5003       H  0.16704507  0.23731405  0.92085570     0.05000
H5004       H  0.14891124  0.22366823  0.88702677     0.08200
H5005       H  0.17671693  0.25562239  0.88628761     0.08200
H5006       H  0.21935626  0.16928902  0.87162649     0.08200
H5007       H  0.24897908  0.19933754  0.87668836     0.08200
H5008       H  0.23371256  0.19076849  0.84023176     0.05000
C5009       C  0.13552008  0.26051763  0.67384409    -0.20800
C5010       C  0.13451865  0.24000625  0.69016757    -0.07400
C5011       C  0.12555359  0.21611727  0.67560137     0.13500
C5012       C  0.11732571  0.21325313  0.64549749    -0.20900
C5013       C  0.11831964  0.23368900  0.62927529    -0.07400
C5014       C  0.12768777  0.25765502  0.64342862     0.13500
C5015       C  0.12816116  0.27973050  0.62689738    -0.24200
H5016       H  0.14212103  0.27869803  0.68503713     0.14700
H5017       H  0.10971652  0.19480178  0.63457659     0.14800
C5018       C  0.12360613  0.19317502  0.69185283    -0.24200
H5019       H  0.13564532  0.29702822  0.64130833     0.05000
H5020       H  0.10836472  0.27419031  0.61978348     0.08200
H5021       H  0.14062393  0.28475176  0.60666214     0.08200
H5022       H  0.11285731  0.18961941  0.71327844     0.08200
H5023       H  0.14306261  0.19665973  0.69683773     0.08200
H5024       H  0.11369629  0.17551693  0.67801681     0.05000
C5025       C  0.11807220  0.24922808  0.89373193    -0.20800
C5026       C  0.09873613  0.22915019  0.87704526    -0.07400
C5027       C  0.07506749  0.21251272  0.89090080     0.13500
C5028       C  0.07140584  0.21611459  0.92142602    -0.20900
C5029       C  0.09106783  0.23576043  0.93882596    -0.07400
C5030       C  0.11476396  0.25270724  0.92442436     0.13500
C5031       C  0.13689782  0.27436359  0.94089435    -0.24200
H5032       H  0.13629207  0.26172621  0.88286938     0.14700
H5033       H  0.05321958  0.20291066  0.93192782     0.14800
C5034       C  0.05385680  0.19072499  0.87355557    -0.24200
H5035       H  0.15332257  0.28606443  0.92559319     0.05000
H5036       H  0.13076018  0.28727926  0.95072443     0.08200
H5037       H  0.14396080  0.26660721  0.95895120     0.08200
H5038       H  0.06044514  0.17761890  0.86546773     0.08200
H5039       H  0.04841227  0.19844933  0.85383839     0.08200
H5040       H  0.03650057  0.17942253  0.88768825     0.05000
loop_ 
_geom_bond_atom_site_label_1 
_geom_bond_atom_site_label_2 
_geom_bond_distance 
_geom_bond_site_symmetry_2 
_ccdc_geom_bond_type 
O1          Cr19   2.023       .  S
O1            C9   1.271       .  A
O2          Cr19   1.982       .  S
O2            C3   1.257       .  A
C3            O4   1.265       .  A
C3         C2429   1.489       .  S
O4          Cr20   2.024       .  S
O5          Cr20   2.011       .  S
O5            C6   1.268       .  A
C6            O7   1.260       .  A
C6         C2458   1.487       .  S
O7          Cr21   1.989       .  S
O8          Cr21   1.969       .  S
O8            C9   1.259       .  A
C9         C2490   1.483       .  S
O10         Cr19   1.983       .  S
O10          C18   1.257       .  A
O11         Cr19   2.020       .  S
O11          C12   1.270       .  A
C12          O13   1.260       .  A
C12        C2506   1.475       .  S
O13         Cr20   1.970       .  S
O14         Cr20   2.006       .  S
O14          C15   1.268       .  A
C15          O16   1.266       .  A
C15        C2477   1.473       .  S
O16         Cr21   1.994       .  S
O17         Cr21   2.009       .  S
O17          C18   1.261       .  A
C18        C2442   1.495       .  S
Cr19         O22   1.773       .  S
Cr20         O22   1.774       .  S
Cr21         O22   1.773       .  S
O23         Cr41   1.971       .  S
O23          C31   1.263       .  A
O24         Cr41   2.002       .  S
O24          C25   1.264       .  A
C25          O26   1.263       .  A
C25        C2346   1.484       .  S
O26         Cr42   1.998       .  S
O27         Cr42   2.005       .  S
O27          C28   1.263       .  A
C28          O29   1.265       .  A
C28        C2410   1.505       .  S
O29         Cr43   1.995       .  S
O30         Cr43   2.010       .  S
O30          C31   1.270       .  A
C31        C2362   1.477       .  S
O32         Cr41   1.993       .  S
O32          C40   1.259       .  A
O33         Cr41   1.983       .  S
O33          C34   1.262       .  A
C34          O35   1.266       .  A
C34        C2378   1.475       .  S
O35         Cr42   2.011       .  S
O36         Cr42   1.977       .  S
O36          C37   1.262       .  A
C37          O38   1.264       .  A
C37        C2394   1.479       .  S
O38         Cr43   2.004       .  S
O39         Cr43   2.003       .  S
O39          C40   1.261       .  A
C40        C2445   1.487       .  S
Cr41         O44   1.772       .  S
Cr42         O44   1.773       .  S
Cr43         O44   1.775       .  S
O45         Cr63   1.960       .  S
O45          C53   1.265       .  A
O46         Cr63   1.991       .  S
O46          C47   1.260       .  A
C47          O48   1.263       .  A
C47        C2253   1.480       .  S
O48         Cr64   2.001       .  S
O49         Cr64   1.999       .  S
O49          C50   1.263       .  A
C50          O51   1.260       .  A
C50        C2333   1.499       .  S
O51         Cr65   1.986       .  S
O52         Cr65   2.017       .  S
O52          C53   1.271       .  A
C53        C2266   1.472       .  S
O54         Cr63   1.982       .  S
O54          C62   1.254       .  A
O55         Cr63   1.994       .  S
O55          C56   1.267       .  A
C56          O57   1.262       .  A
C56        C2285   1.489       .  S
O57         Cr64   1.993       .  S
O58         Cr64   1.964       .  S
O58          C59   1.259       .  A
C59          O60   1.268       .  A
C59        C2298   1.474       .  S
O60         Cr65   2.009       .  S
O61         Cr65   2.002       .  S
O61          C62   1.261       .  A
C62        C2314   1.500       .  S
Cr63         O66   1.766       .  S
Cr64         O66   1.770       .  S
Cr65         O66   1.777       .  S
O67         Cr85   2.032       .  S
O67          C75   1.275       .  A
O68         Cr85   1.963       .  S
O68          C69   1.254       .  A
C69          O70   1.265       .  A
C69        C2186   1.492       .  S
O70         Cr86   2.015       .  S
O71         Cr86   1.985       .  S
O71          C72   1.260       .  A
C72          O73   1.261       .  A
C72        C2205   1.478       .  S
O73         Cr87   1.998       .  S
O74         Cr87   1.962       .  S
O74          C75   1.263       .  A
C75        C2218   1.484       .  S
O76         Cr85   1.973       .  S
O76          C84   1.254       .  A
O77         Cr85   2.024       .  S
O77          C78   1.271       .  A
C78          O79   1.254       .  A
C78        C2234   1.490       .  S
O79         Cr86   1.952       .  S
O80         Cr86   2.001       .  S
O80          C81   1.269       .  A
C81          O82   1.268       .  A
C81        C2397   1.466       .  S
O82         Cr87   1.990       .  S
O83         Cr87   2.012       .  S
O83          C84   1.258       .  A
C84        C2317   1.495       .  S
Cr85         O88   1.771       .  S
Cr86         O88   1.775       .  S
Cr87         O88   1.778       .  S
O89       Cr2627   2.019   1_554  S
O89          C97   1.270       .  A
O90        Cr107   1.982       .  S
O90          C91   1.259       .  A
C91          O92   1.264       .  A
C91        C2106   1.483       .  S
O92        Cr108   2.012       .  S
O93        Cr108   1.992       .  S
O93          C94   1.261       .  A
C94          O95   1.262       .  A
C94        C4658   1.476       .  S
O95        Cr109   2.003       .  S
O96       Cr2629   1.969   1_554  S
O96          C97   1.263       .  A
C97        C2157   1.497       .  S
O98        Cr107   1.981       .  S
O98         C106   1.258       .  A
O99        Cr107   2.018       .  S
O99         C100   1.267       .  A
C100        O101   1.258       .  A
C100       C2170   1.486       .  S
O101       Cr108   1.954       .  S
O102       Cr108   2.007       .  S
O102        C103   1.268       .  A
C103        O104   1.265       .  A
C103       C2474   1.473       .  S
O104       Cr109   1.991       .  S
O105       Cr109   2.006       .  S
O105        C106   1.260       .  A
C106       C2125   1.489       .  S
Cr107      O2609   2.015       .  S
Cr107       O110   1.776       .  S
Cr108       O110   1.773       .  S
Cr109      O2616   1.973       .  S
Cr109       O110   1.777       .  S
O111       Cr129   1.963       .  S
O111        C119   1.261       .  A
O112       Cr129   2.000       .  S
O112        C113   1.264       .  A
C113        O114   1.263       .  A
C113       C2042   1.488       .  S
O114       Cr130   1.998       .  S
O115       Cr130   2.007       .  S
O115        C116   1.265       .  A
C116        O117   1.260       .  A
C116       C2058   1.497       .  S
O117       Cr131   1.981       .  S
O118       Cr131   2.012       .  S
O118        C119   1.271       .  A
C119       C2074   1.473       .  S
O120       Cr129   1.991       .  S
O120        C128   1.258       .  A
O121       Cr129   1.979       .  S
O121       C2642   1.261       .  A
C122        O123   1.267       .  A
C122       O2641   1.261   1_554  A
C122       C2090   1.467       .  S
O123      Cr2650   2.008   1_554  S
O124       Cr130   1.971       .  S
O124        C125   1.260       .  A
C125        O126   1.267       .  A
C125       C4821   1.475       .  S
O126       Cr131   2.011       .  S
O127       Cr131   1.997       .  S
O127        C128   1.261       .  A
C128       C2122   1.481       .  S
Cr129       O132   1.768       .  S
Cr130      O2643   2.007       .  S
Cr130       O132   1.769       .  S
Cr131       O132   1.770       .  S
O133       Cr151   1.973       .  S
O133        C141   1.258       .  A
O134       Cr151   2.025       .  S
O134        C135   1.272       .  A
C135        O136   1.261       .  A
C135       C1994   1.471       .  S
O136       Cr152   1.962       .  S
O137       Cr152   1.996       .  S
O137        C138   1.261       .  A
C138        O139   1.263       .  A
C138       C2045   1.484       .  S
O139       Cr153   1.998       .  S
O140       Cr153   2.009       .  S
O140        C141   1.263       .  A
C141       C1962   1.478       .  S
O142       Cr151   2.003       .  S
O142        C150   1.265       .  A
O143       Cr151   1.984       .  S
O143        C144   1.254       .  A
C144        O145   1.260       .  A
C144       C1981   1.484       .  S
O145       Cr152   2.011       .  S
O146       Cr152   1.989       .  S
O146        C147   1.266       .  A
C147        O148   1.267       .  A
C147       C2029   1.466       .  S
O148       Cr153   2.001       .  S
O149       Cr153   1.966       .  S
O149        C150   1.259       .  A
C150       C2010   1.479       .  S
Cr151       O154   1.777       .  S
Cr152       O154   1.777       .  S
Cr153       O154   1.778       .  S
O155       Cr173   1.968       .  S
O155        C163   1.257       .  A
O156       Cr173   2.018       .  S
O156        C157   1.271       .  A
C157        O158   1.260       .  A
C157       C1901   1.494       .  S
O158       Cr174   1.977       .  S
O159       Cr174   1.999       .  S
O159        C160   1.266       .  A
C160        O161   1.262       .  A
C160       C1949   1.477       .  S
O161       Cr175   1.986       .  S
O162       Cr175   2.028       .  S
O162        C163   1.267       .  A
C163       C1882   1.493       .  S
O164       Cr173   2.021       .  S
O164        C172   1.268       .  A
O165       Cr173   1.976       .  S
O165        C166   1.256       .  A
C166        O167   1.265       .  A
C166       C1978   1.483       .  S
O167       Cr174   2.022       .  S
O168       Cr174   1.999       .  S
O168        C169   1.266       .  A
C169        O170   1.267       .  A
C169       C1930   1.478       .  S
O170       Cr175   2.004       .  S
O171       Cr175   1.965       .  S
O171        C172   1.257       .  A
C172       C1914   1.489       .  S
Cr173       O176   1.770       .  S
Cr174       O176   1.775       .  S
Cr175       O176   1.775       .  S
O177       Cr195   1.997       .  S
O177        C185   1.266       .  A
O178       Cr195   1.965       .  S
O178        C179   1.262       .  A
C179        O180   1.270       .  A
C179       C2173   1.477       .  S
O180       Cr196   2.024       .  S
O181       Cr196   1.978       .  S
O181        C182   1.261       .  A
C182        O183   1.263       .  A
C182       C1866   1.497       .  S
O183       Cr197   2.007       .  S
O184       Cr197   1.995       .  S
O184        C185   1.261       .  A
C185       C2461   1.491       .  S
O186       Cr195   1.988       .  S
O186        C194   1.264       .  A
O187       Cr195   2.002       .  S
O187        C188   1.262       .  A
C188        O189   1.258       .  A
C188       C1853   1.489       .  S
O189       Cr196   1.994       .  S
O190       Cr196   2.006       .  S
O190        C191   1.268       .  A
C191        O192   1.258       .  A
C191       C1834   1.476       .  S
O192       Cr197   1.966       .  S
O193       Cr197   2.008       .  S
O193        C194   1.267       .  A
C194       C2154   1.473       .  S
Cr195       O198   1.763       .  S
Cr196       O198   1.771       .  S
Cr197       O198   1.771       .  S
O199       Cr217   2.001       .  S
O199        C207   1.262       .  A
O200       Cr217   1.965       .  S
O200        C201   1.262       .  A
C201        O202   1.271       .  A
C201       C2093   1.471       .  S
O202       Cr218   2.008       .  S
O203       Cr218   1.994       .  S
O203        C204   1.264       .  A
C204        O205   1.261       .  A
C204       C1818   1.507       .  S
O205       Cr219   2.003       .  S
O206       Cr219   2.004       .  S
O206        C207   1.265       .  A
C207       C2330   1.483       .  S
O208       Cr217   1.976       .  S
O208        C216   1.259       .  A
O209       Cr217   1.993       .  S
O209        C210   1.257       .  A
C210        O211   1.260       .  A
C210       C1850   1.482       .  S
O211       Cr218   2.003       .  S
O212       Cr218   2.005       .  S
O212        C213   1.266       .  A
C213        O214   1.263       .  A
C213       C2026   1.478       .  S
O214       Cr219   1.978       .  S
O215       Cr219   2.003       .  S
O215        C216   1.264       .  A
C216       C2077   1.464       .  S
Cr217       O220   1.775       .  S
Cr218       O220   1.777       .  S
Cr219       O220   1.773       .  S
O221       Cr239   2.002       .  S
O221        C229   1.262       .  A
O222      Cr2759   1.973       .  S
O222        C223   1.266       .  A
C223        O224   1.273       .  A
C223       C1786   1.485       .  S
O224      Cr2760   2.023       .  S
O225       Cr240   1.981       .  S
O225        C226   1.263       .  A
C226        O227   1.266       .  A
C226       C4629   1.503   1_565  S
O227       Cr241   2.015       .  S
O228       Cr241   2.005       .  S
O228        C229   1.264       .  A
C229       C1754   1.487       .  S
O230       Cr239   1.986       .  S
O230        C238   1.263       .  A
O231       Cr239   1.987       .  S
O231        C232   1.258       .  A
C232        O233   1.260       .  A
C232       C1770   1.495       .  S
O233       Cr240   2.006       .  S
O234       Cr240   2.008       .  S
O234        C235   1.267       .  A
C235        O236   1.258       .  A
C235       C1837   1.480       .  S
O236       Cr241   1.971       .  S
O237       Cr241   2.011       .  S
O237        C238   1.269       .  A
C238       C1802   1.477       .  S
Cr239      O2742   1.973   1_554  S
Cr239       O242   1.769       .  S
Cr240      O2744   2.023   1_554  S
Cr240       O242   1.775       .  S
Cr241       O242   1.772       .  S
O243       Cr261   1.993       .  S
O243        C251   1.260       .  A
O244       Cr261   1.965       .  S
O244        C245   1.265       .  A
C245        O246   1.277       .  A
C245       C1725   1.472       .  S
O246       Cr262   2.033       .  S
O247       Cr262   1.978       .  S
O247        C248   1.259       .  A
C248        O249   1.262       .  A
C248       C1709   1.493       .  S
O249       Cr263   1.996       .  S
O250       Cr263   2.001       .  S
O250        C251   1.260       .  A
C251       C1690   1.485       .  S
O252       Cr261   1.990       .  S
O252       C2780   1.267   1_554  A
O253       Cr261   1.984       .  S
O253        C254   1.252       .  A
C254        O255   1.259       .  A
C254       C1773   1.498       .  S
O255       Cr262   2.008       .  S
O256       Cr262   2.024       .  S
O256        C257   1.270       .  A
C257        O258   1.260   1_554  A
C257       C4453   1.491   1_554  S
O258       Cr263   1.961   1_556  S
O259      Cr2783   2.001       .  S
O259        C260   1.268       .  A
C260       O2772   1.266       .  A
C260       C1738   1.488       .  S
Cr261       O264   1.772       .  S
Cr262       O264   1.778       .  S
Cr263      O2779   2.004       .  S
Cr263       O264   1.774       .  S
O265       Cr283   1.962       .  S
O265        C273   1.262       .  A
O266       Cr283   2.000       .  S
O266        C267   1.263       .  A
C267        O268   1.262       .  A
C267       C1946   1.482       .  S
O268       Cr284   1.996       .  S
O269       Cr284   1.998       .  S
O269        C270   1.264       .  A
C270        O271   1.259       .  A
C270       C1661   1.491       .  S
O271       Cr285   1.983       .  S
O272       Cr285   2.024       .  S
O272        C273   1.272       .  A
C273       C1741   1.478       .  S
O274       Cr283   1.989       .  S
O274        C282   1.261       .  A
O275       Cr283   1.990       .  S
O275        C276   1.264       .  A
C276        O277   1.268       .  A
C276       C1722   1.486       .  S
O277       Cr284   2.005       .  S
O278       Cr284   1.961       .  S
O278        C279   1.258       .  A
C279        O280   1.269       .  A
C279       C1674   1.476       .  S
O280       Cr285   2.020       .  S
O281       Cr285   1.995       .  S
O281        C282   1.258       .  A
C282       C1642   1.494       .  S
Cr283       O286   1.764       .  S
Cr284       O286   1.765       .  S
Cr285       O286   1.776       .  S
O287       Cr305   1.981       .  S
O287        C295   1.266       .  A
O288       Cr305   2.007       .  S
O288        C289   1.265       .  A
C289        O290   1.262       .  A
C289       C1869   1.478       .  S
O290       Cr306   1.991       .  S
O291       Cr306   1.997       .  S
O291        C292   1.261       .  A
C292        O293   1.261       .  A
C292       C1626   1.478   1_455  S
O293       Cr307   1.990       .  S
O294       Cr307   2.020       .  S
O294        C295   1.272       .  A
C295       C1805   1.484       .  S
O296       Cr305   1.991       .  S
O296        C304   1.258       .  A
O297       Cr305   1.990       .  S
O297        C298   1.261       .  A
C298        O299   1.262       .  A
C298       C1789   1.474       .  S
O299       Cr306   2.001       .  S
O300       Cr306   1.966       .  S
O300        C301   1.262       .  A
C301        O302   1.267       .  A
C301       C1610   1.494       .  S
O302       Cr307   2.017       .  S
O303       Cr307   1.999       .  S
O303        C304   1.260       .  A
C304       C1645   1.483       .  S
Cr305       O308   1.774       .  S
Cr306       O308   1.775       .  S
Cr307       O308   1.776       .  S
O309       Cr327   1.976       .  S
O309        C317   1.266       .  A
O310       Cr327   1.994       .  S
O310        C311   1.262       .  A
C311        O312   1.264       .  A
C311       C1514   1.487       .  S
O312       Cr328   2.002       .  S
O313       Cr328   2.002       .  S
O313        C314   1.263       .  A
C314        O315   1.256       .  A
C314       C1597   1.485       .  S
O315       Cr329   1.969       .  S
O316       Cr329   2.016       .  S
O316        C317   1.271       .  A
C317       C1546   1.479       .  S
O318       Cr327   1.989       .  S
O318        C326   1.259       .  A
O319       Cr327   2.001       .  S
O319        C320   1.268       .  A
C320        O321   1.263       .  A
C320       C1562   1.493       .  S
O321       Cr328   1.997       .  S
O322       Cr328   1.965       .  S
O322        C323   1.258       .  A
C323        O324   1.265       .  A
C323       C1530   1.472       .  S
O324       Cr329   2.009       .  S
O325       Cr329   1.997       .  S
O325        C326   1.258       .  A
C326       C1578   1.496       .  S
Cr327       O330   1.769       .  S
Cr328       O330   1.773       .  S
Cr329       O330   1.777       .  S
O331       Cr349   2.014       .  S
O331        C339   1.272       .  A
O332       Cr349   1.972       .  S
O332        C333   1.257       .  A
C333        O334   1.267       .  A
C333       C1469   1.488       .  S
O334       Cr350   2.025       .  S
O335       Cr350   1.991       .  S
O335        C336   1.262       .  A
C336        O337   1.264       .  A
C336       C1693   1.482       .  S
O337       Cr351   2.002       .  S
O338       Cr351   1.980       .  S
O338        C339   1.264       .  A
C339       C1485   1.485       .  S
O340       Cr349   1.965       .  S
O340        C348   1.251       .  A
O341       Cr349   2.011       .  S
O341        C342   1.266       .  A
C342        O343   1.254       .  A
C342       C1501   1.475       .  S
O343       Cr350   1.953       .  S
O344       Cr350   2.006       .  S
O344        C345   1.269       .  A
C345        O346   1.266       .  A
C345       C1677   1.471       .  S
O346       Cr351   1.991       .  S
O347       Cr351   2.024       .  S
O347        C348   1.262       .  A
C348       C1581   1.488       .  S
Cr349       O352   1.768       .  S
Cr350       O352   1.777       .  S
Cr351       O352   1.780       .  S
O353       Cr371   1.960       .  S
O353        C361   1.265       .  A
O354       Cr371   2.002       .  S
O354        C355   1.261       .  A
C355        O356   1.264       .  A
C355       C1386   1.486       .  S
O356       Cr372   2.005       .  S
O357       Cr372   1.998       .  S
O357        C358   1.260       .  A
C358        O359   1.264       .  A
C358       C1418   1.505       .  S
O359       Cr373   1.992       .  S
O360       Cr373   2.021       .  S
O360        C361   1.273       .  A
C361       C1434   1.485       .  S
O362       Cr371   1.986       .  S
O362        C370   1.258       .  A
O363       Cr371   1.988       .  S
O363       C2884   1.264       .  A
C364        O365   1.267       .  A
C364       O2883   1.263   1_554  A
C364       C1450   1.487       .  S
O365      Cr2892   1.997   1_554  S
O366       Cr372   1.968       .  S
O366        C367   1.261       .  A
C367        O368   1.267       .  A
C367       C4053   1.476       .  S
O368       Cr373   2.008       .  S
O369       Cr373   2.010       .  S
O369        C370   1.260       .  A
C370       C1402   1.498       .  S
Cr371       O374   1.770       .  S
Cr372      O2885   1.992       .  S
Cr372       O374   1.768       .  S
Cr373       O374   1.777       .  S
O375      Cr2913   1.977   1_554  S
O375        C383   1.264       .  A
O376       Cr393   2.002       .  S
O376        C377   1.261       .  A
C377        O378   1.260       .  A
C377       C1338   1.481       .  S
O378       Cr394   1.997       .  S
O379       Cr394   2.014       .  S
O379        C380   1.267       .  A
C380        O381   1.259       .  A
C380       C4277   1.504       .  S
O381       Cr395   1.981       .  S
O382      Cr2915   2.017   1_554  S
O382        C383   1.268       .  A
C383       C1354   1.473       .  S
O384       Cr393   2.003       .  S
O384        C392   1.262       .  A
O385       Cr393   1.979       .  S
O385        C386   1.262       .  A
C386        O387   1.269       .  A
C386       C1370   1.474       .  S
O387       Cr394   2.018       .  S
O388       Cr394   1.977       .  S
O388        C389   1.260       .  A
C389        O390   1.267       .  A
C389       C1613   1.477       .  S
O390       Cr395   2.015       .  S
O391       Cr395   2.001       .  S
O391        C392   1.262       .  A
C392       C1405   1.487       .  S
Cr393      O2895   1.980       .  S
Cr393       O396   1.770       .  S
Cr394       O396   1.773       .  S
Cr395      O2902   2.017       .  S
Cr395       O396   1.776       .  S
O397       Cr415   1.973       .  S
O397        C405   1.258       .  A
O398       Cr415   2.026       .  S
O398        C399   1.275       .  A
C399        O400   1.263       .  A
C399       C1373   1.494       .  S
O400       Cr416   1.971       .  S
O401       Cr416   1.997       .  S
O401        C402   1.260       .  A
C402        O403   1.257       .  A
C402       C1322   1.474       .  S
O403       Cr417   1.992       .  S
O404       Cr417   2.002       .  S
O404        C405   1.264       .  A
C405       C1629   1.488       .  S
O406       Cr415   2.018       .  S
O406        C414   1.267       .  A
O407       Cr415   1.983       .  S
O407        C408   1.254       .  A
C408        O409   1.259       .  A
C408       C1306   1.478       .  S
O409       Cr416   2.007       .  S
O410       Cr416   1.985       .  S
O410        C411   1.267       .  A
C411        O412   1.270       .  A
C411       C1290   1.469       .  S
O412       Cr417   2.005       .  S
O413       Cr417   1.955       .  S
O413        C414   1.254       .  A
C414       C1357   1.483       .  S
Cr415       O418   1.774       .  S
Cr416       O418   1.779       .  S
Cr417       O418   1.774       .  S
O419       Cr437   1.962       .  S
O419        C427   1.257       .  A
O420       Cr437   2.022       .  S
O420        C421   1.269       .  A
C421        O422   1.257       .  A
C421       C1453   1.466       .  S
O422       Cr438   1.953       .  S
O423       Cr438   2.005       .  S
O423        C424   1.267       .  A
C424        O425   1.261       .  A
C424       C2250   1.475       .  S
O425       Cr439   1.982       .  S
O426       Cr439   2.009       .  S
O426        C427   1.263       .  A
C427       C1594   1.471       .  S
O428       Cr437   2.013       .  S
O428        C436   1.266       .  A
O429       Cr437   1.972       .  S
O429        C430   1.255       .  A
C430        O431   1.264       .  A
C430       C1309   1.480       .  S
O431       Cr438   2.017       .  S
O432       Cr438   1.986       .  S
O432        C433   1.262       .  A
C433        O434   1.266       .  A
C433       C1274   1.467       .  S
O434       Cr439   2.000       .  S
O435       Cr439   1.962       .  S
O435        C436   1.258       .  A
C436       C1437   1.476       .  S
Cr437       O440   1.773       .  S
Cr438       O440   1.774       .  S
Cr439       O440   1.772       .  S
O441       Cr459   2.002       .  S
O441        C449   1.262       .  A
O442       Cr459   1.966       .  S
O442        C443   1.265       .  A
C443        O444   1.268       .  A
C443       C2282   1.461       .  S
O444       Cr460   2.009       .  S
O445       Cr460   1.996       .  S
O445        C446   1.262       .  A
C446        O447   1.260       .  A
C446       C1389   1.502       .  S
O447       Cr461   1.991       .  S
O448       Cr461   2.001       .  S
O448        C449   1.264       .  A
C449       C2061   1.481       .  S
O450       Cr459   1.997       .  S
O450        C458   1.268       .  A
O451       Cr459   1.988       .  S
O451        C452   1.258       .  A
C452        O453   1.258       .  A
C452       C1258   1.492       .  S
O453       Cr460   1.997       .  S
O454       Cr460   2.005       .  S
O454        C455   1.265       .  A
C455        O456   1.260       .  A
C455       C1277   1.483       .  S
O456       Cr461   1.962       .  S
O457       Cr461   1.994       .  S
O457        C458   1.262       .  A
C458       C2269   1.487       .  S
Cr459       O462   1.771       .  S
Cr460       O462   1.781       .  S
Cr461       O462   1.768       .  S
O463       Cr481   1.997       .  S
O463        C471   1.259       .  A
O464       Cr481   1.975       .  S
O464        C465   1.265       .  A
C465        O466   1.271       .  A
C465       C2237   1.478       .  S
O466       Cr482   2.020       .  S
O467       Cr482   1.997       .  S
O467        C468   1.263       .  A
C468        O469   1.265       .  A
C468       C1242   1.496       .  S
O469       Cr483   2.003       .  S
O470       Cr483   2.010       .  S
O470        C471   1.265       .  A
C471       C2413   1.484       .  S
O472       Cr481   2.000       .  S
O472        C480   1.267       .  A
O473       Cr481   1.985       .  S
O473        C474   1.255       .  A
C474        O475   1.262       .  A
C474       C1261   1.501       .  S
O475       Cr482   2.006       .  S
O476       Cr482   2.011       .  S
O476        C477   1.267       .  A
C477        O478   1.260       .  A
C477       C1226   1.477       .  S
O478       Cr483   1.971       .  S
O479       Cr483   2.003       .  S
O479        C480   1.270       .  A
C480       C2221   1.493       .  S
Cr481       O484   1.769       .  S
Cr482       O484   1.779       .  S
Cr483       O484   1.765       .  S
O485       Cr503   1.979       .  S
O485        C493   1.257       .  A
O486       Cr503   2.014       .  S
O486        C487   1.272       .  A
C487        O488   1.264       .  A
C487       C1194   1.504       .  S
O488       Cr504   1.989       .  S
O489       Cr504   1.999       .  S
O489        C490   1.264       .  A
C490        O491   1.262       .  A
C490       C2189   1.477       .  S
O491       Cr505   1.994       .  S
O492       Cr505   2.009       .  S
O492        C493   1.262       .  A
C493       C1162   1.476       .  S
O494       Cr503   2.012       .  S
O494       C3022   1.266   1_554  A
O495       Cr503   1.970       .  S
O495        C496   1.254       .  A
C496        O497   1.264       .  A
C496       C1181   1.491       .  S
O497       Cr504   2.020       .  S
O498       Cr504   1.997       .  S
O498        C499   1.267       .  A
C499        O500   1.266       .  A
C499       C3749   1.472   1_554  S
O500       Cr505   1.998       .  S
O501      Cr3025   1.965       .  S
O501        C502   1.257       .  A
C502       O3014   1.269       .  A
C502       C1210   1.476       .  S
Cr503       O506   1.771       .  S
Cr504       O506   1.781       .  S
Cr505      O3021   1.964   1_554  S
Cr505       O506   1.780       .  S
O507       Cr525   1.994       .  S
O507        C515   1.263       .  A
O508      Cr3045   1.971       .  S
O508        C509   1.264       .  A
C509        O510   1.269       .  A
C509       C1133   1.477       .  S
O510      Cr3046   2.019       .  S
O511       Cr526   1.986   1_556  S
O511        C512   1.261   1_556  A
C512        O513   1.267       .  A
C512       C3861   1.501   1_554  S
O513       Cr527   2.010       .  S
O514       Cr527   2.005       .  S
O514        C515   1.263       .  A
C515       C1114   1.491       .  S
O516       Cr525   1.982       .  S
O516        C524   1.264       .  A
O517       Cr525   1.992       .  S
O517        C518   1.260       .  A
C518        O519   1.261       .  A
C518       C1178   1.498       .  S
O519       Cr526   2.003       .  S
O520       Cr526   2.008       .  S
O520        C521   1.265       .  A
C521        O522   1.258       .  A
C521       C1293   1.470       .  S
O522       Cr527   1.970       .  S
O523       Cr527   2.010       .  S
O523        C524   1.269       .  A
C524       C1149   1.480       .  S
Cr525      O3028   1.962   1_554  S
Cr525       O528   1.765       .  S
Cr526      O3030   2.018   1_554  S
Cr526       O528   1.776       .  S
Cr527       O528   1.770       .  S
O529       Cr547   1.985       .  S
O529        C537   1.260       .  A
O530       Cr547   1.964       .  S
O530        C531   1.262       .  A
C531        O532   1.272       .  A
C531       C1066   1.478       .  S
O532       Cr548   2.021       .  S
O533       Cr548   1.987       .  S
O533        C534   1.259       .  A
C534        O535   1.264       .  A
C534       C2426   1.499       .  S
O535       Cr549   2.005       .  S
O536       Cr549   2.019       .  S
O536        C537   1.266       .  A
C537       C1037   1.503       .  S
O538       Cr547   1.993       .  S
O538        C546   1.268       .  A
O539       Cr547   1.996       .  S
O539        C540   1.258       .  A
C540        O541   1.258       .  A
C540       C1050   1.487       .  S
O541       Cr548   2.001       .  S
O542       Cr548   2.005       .  S
O542        C543   1.267       .  A
C543        O544   1.263       .  A
C543       C1101   1.478       .  S
O544       Cr549   1.975       .  S
O545       Cr549   2.006       .  S
O545        C546   1.269       .  A
C546       C1082   1.476       .  S
Cr547       O550   1.769       .  S
Cr548       O550   1.775       .  S
Cr549       O550   1.770       .  S
O551       Cr569   1.958       .  S
O551        C559   1.253       .  A
O552       Cr569   2.021       .  S
O552        C553   1.269       .  A
C553        O554   1.259       .  A
C553       C1002   1.487       .  S
O554       Cr570   1.971       .  S
O555       Cr570   2.002       .  S
O555        C556   1.267       .  A
C556        O557   1.265       .  A
C556       C1517   1.484       .  S
O557       Cr571   1.995       .  S
O558       Cr571   2.036       .  S
O558        C559   1.269       .  A
C559        C973   1.487       .  S
O560       Cr569   2.025       .  S
O560        C568   1.268       .  A
O561       Cr569   1.968       .  S
O561        C562   1.255       .  A
C562        O563   1.267       .  A
C562       C1053   1.493       .  S
O563       Cr570   2.027       .  S
O564       Cr570   1.989       .  S
O564        C565   1.264       .  A
C565        O566   1.267       .  A
C565        C986   1.469       .  S
O566       Cr571   2.002       .  S
O567       Cr571   1.971       .  S
O567        C568   1.258       .  A
C568       C1018   1.485       .  S
Cr569       O572   1.770       .  S
Cr570       O572   1.772       .  S
Cr571       O572   1.776       .  S
O573       Cr591   1.970       .  S
O573        C581   1.258       .  A
O574      Cr3111   2.020       .  S
O574        C575   1.269       .  A
C575        O576   1.261       .  A
C575       C2509   1.496       .  S
O576      Cr3112   1.968       .  S
O577       Cr592   1.996       .  S
O577        C578   1.261       .  A
C578        O579   1.258       .  A
C578       C3477   1.469   1_455  S
O579       Cr593   1.986       .  S
O580       Cr593   2.018       .  S
O580        C581   1.266       .  A
C581       C2141   1.486       .  S
O582       Cr591   2.018       .  S
O582        C590   1.267       .  A
O583       Cr591   1.980       .  S
O583        C584   1.258       .  A
C584        O585   1.262       .  A
C584        C938   1.487       .  S
O585       Cr592   2.016       .  S
O586       Cr592   1.983       .  S
O586        C587   1.264       .  A
C587        O588   1.268       .  A
C587       C1098   1.466       .  S
O588       Cr593   1.999       .  S
O589       Cr593   1.961       .  S
O589        C590   1.255       .  A
C590       C2493   1.475       .  S
Cr591      O3094   2.024   1_554  S
Cr591       O594   1.770       .  S
Cr592      O3096   1.974   1_554  S
Cr592       O594   1.779       .  S
Cr593       O594   1.776       .  S
O595       Cr613   1.980       .  S
O595        C603   1.261       .  A
O596       Cr613   1.961       .  S
O596        C597   1.262       .  A
C597        O598   1.275       .  A
C597       C2381   1.477       .  S
O598       Cr614   2.025       .  S
O599       Cr614   1.991       .  S
O599        C600   1.261       .  A
C600        O601   1.261       .  A
C600       C1466   1.494       .  S
O601       Cr615   2.000       .  S
O602       Cr615   2.003       .  S
O602        C603   1.264       .  A
C603       C2202   1.485       .  S
O604       Cr613   1.992       .  S
O604       C3132   1.265   1_554  A
O605       Cr613   1.983       .  S
O605        C606   1.253       .  A
C606        O607   1.257       .  A
C606        C941   1.480       .  S
O607       Cr614   2.004       .  S
O608       Cr614   2.010       .  S
O608        C609   1.267       .  A
C609        O610   1.261   1_554  A
C609       C3442   1.485   1_554  S
O610       Cr615   1.959   1_556  S
O611      Cr3135   1.999       .  S
O611        C612   1.264       .  A
C612       O3124   1.266       .  A
C612       C2365   1.468       .  S
Cr613       O616   1.770       .  S
Cr614       O616   1.776       .  S
Cr615      O3131   2.001   1_554  S
Cr615       O616   1.773       .  S
O617       Cr635   2.005       .  S
O617        C625   1.262       .  A
O618       Cr635   1.953       .  S
O618        C619   1.263       .  A
C619        O620   1.273       .  A
C619       C1565   1.472       .  S
O620       Cr636   2.026       .  S
O621       Cr636   1.980       .  S
O621        C622   1.259       .  A
C622        O623   1.266       .  A
C622        C906   1.493       .  S
O623       Cr637   2.010       .  S
O624       Cr637   2.007       .  S
O624        C625   1.264       .  A
C625       C1421   1.489       .  S
O626       Cr635   1.982       .  S
O626        C634   1.263       .  A
O627       Cr635   1.991       .  S
O627        C628   1.258       .  A
C628        O629   1.258       .  A
C628        C890   1.485       .  S
O629       Cr636   1.996       .  S
O630       Cr636   2.019       .  S
O630        C631   1.269       .  A
C631        O632   1.260       .  A
C631        C989   1.487       .  S
O632       Cr637   1.965       .  S
O633       Cr637   2.011       .  S
O633        C634   1.270       .  A
C634       C1549   1.470       .  S
Cr635       O638   1.767       .  S
Cr636       O638   1.774       .  S
Cr637       O638   1.767       .  S
O639       Cr657   1.971       .  S
O639        C647   1.256       .  A
O640       Cr657   2.029       .  S
O640        C641   1.270       .  A
C641        O642   1.257       .  A
C641       C1498   1.474       .  S
O642       Cr658   1.948       .  S
O643       Cr658   2.007       .  S
O643        C644   1.267       .  A
C644        O645   1.264       .  A
C644       C2349   1.480       .  S
O645       Cr659   1.990       .  S
O646       Cr659   2.018       .  S
O646        C647   1.265       .  A
C647       C1658   1.478       .  S
O648       Cr657   2.029       .  S
O648        C656   1.271       .  A
O649       Cr657   1.971       .  S
O649        C650   1.255       .  A
C650        O651   1.264       .  A
C650        C893   1.491       .  S
O651       Cr658   2.011       .  S
O652       Cr658   1.979       .  S
O652        C653   1.260       .  A
C653        O654   1.266       .  A
C653        C925   1.465       .  S
O654       Cr659   2.001       .  S
O655       Cr659   1.964       .  S
O655        C656   1.258       .  A
C656       C1482   1.495       .  S
Cr657       O660   1.772       .  S
Cr658       O660   1.774       .  S
Cr659       O660   1.772       .  S
O661       Cr679   1.962       .  S
O661        C669   1.260       .  A
O662       Cr679   2.008       .  S
O662        C663   1.266       .  A
C663        O664   1.264       .  A
C663       C1325   1.477       .  S
O664       Cr680   1.994       .  S
O665       Cr680   2.022       .  S
O665        C666   1.264       .  A
C666        O667   1.255       .  A
C666       C1034   1.488   1_565  S
O667       Cr681   1.967       .  S
O668       Cr681   2.023       .  S
O668        C669   1.271       .  A
C669       C1146   1.473       .  S
O670       Cr679   1.997       .  S
O670        C678   1.260       .  A
O671       Cr679   1.988       .  S
O671        C672   1.262       .  A
C672        O673   1.267       .  A
C672       C1130   1.491       .  S
O673       Cr680   2.003       .  S
O674       Cr680   1.975       .  S
O674        C675   1.261       .  A
C675        O676   1.270       .  A
C675        C858   1.488       .  S
O676       Cr681   2.019       .  S
O677       Cr681   1.989       .  S
O677        C678   1.257       .  A
C678        C874   1.481       .  S
Cr679       O682   1.774       .  S
Cr680       O682   1.776       .  S
Cr681       O682   1.768       .  S
O683       Cr701   2.029       .  S
O683        C691   1.274       .  A
O684       Cr701   1.966       .  S
O684        C685   1.255       .  A
C685        O686   1.269       .  A
C685       C1245   1.492       .  S
O686       Cr702   2.032       .  S
O687       Cr702   2.004       .  S
O687        C688   1.265       .  A
C688        O689   1.265       .  A
C688       C1885   1.487       .  S
O689       Cr703   2.010       .  S
O690       Cr703   1.966       .  S
O690        C691   1.262       .  A
C691       C1213   1.491       .  S
O692       Cr701   1.973       .  S
O692        C700   1.254       .  A
O693       Cr701   2.030       .  S
O693        C694   1.269       .  A
C694        O695   1.257       .  A
C694       C1197   1.487       .  S
O695       Cr702   1.974       .  S
O696       Cr702   1.997       .  S
O696        C697   1.269       .  A
C697        O698   1.265       .  A
C697        C845   1.468       .  S
O698       Cr703   1.985       .  S
O699       Cr703   2.023       .  S
O699        C700   1.264       .  A
C700        C877   1.490       .  S
Cr701       O704   1.772       .  S
Cr702       O704   1.773       .  S
Cr703       O704   1.782       .  S
O705       Cr723   1.958       .  S
O705        C713   1.262       .  A
O706       Cr723   2.004       .  S
O706        C707   1.261       .  A
C707        O708   1.265       .  A
C707       C1821   1.490       .  S
O708       Cr724   2.008       .  S
O709       Cr724   2.010       .  S
O709        C710   1.264       .  A
C710        O711   1.259       .  A
C710        C970   1.483       .  S
O711       Cr725   1.973       .  S
O712       Cr725   2.025       .  S
O712        C713   1.273       .  A
C713       C2013   1.468       .  S
O714       Cr723   1.996       .  S
O714        C722   1.259       .  A
O715       Cr723   1.984       .  S
O715        C716   1.265       .  A
C716        O717   1.271       .  A
C716       C1997   1.490       .  S
O717       Cr724   2.001       .  S
O718       Cr724   1.972       .  S
O718        C719   1.260       .  A
C719        O720   1.268       .  A
C719        C813   1.485       .  S
O720       Cr725   2.015       .  S
O721       Cr725   1.994       .  S
O721        C722   1.256       .  A
C722        C829   1.486       .  S
Cr723       O726   1.770       .  S
Cr724       O726   1.766       .  S
Cr725       O726   1.773       .  S
O727       Cr745   2.022       .  S
O727        C735   1.272       .  A
O728       Cr745   1.959       .  S
O728        C729   1.254       .  A
C729        O730   1.266       .  A
C729       C1706   1.477       .  S
O730       Cr746   2.028       .  S
O731       Cr746   1.986       .  S
O731        C732   1.264       .  A
C732        O733   1.269       .  A
C732       C1165   1.480       .  S
O733       Cr747   2.007       .  S
O734       Cr747   1.966       .  S
O734        C735   1.257       .  A
C735       C1917   1.491       .  S
O736       Cr745   1.958       .  S
O736        C744   1.253       .  A
O737       Cr745   2.029       .  S
O737        C738   1.271       .  A
C738        O739   1.258       .  A
C738       C1898   1.491       .  S
O739       Cr746   1.966       .  S
O740       Cr746   2.000       .  S
O740        C741   1.267       .  A
C741        O742   1.261       .  A
C741        C842   1.469       .  S
O742       Cr747   1.986       .  S
O743       Cr747   2.025       .  S
O743        C744   1.267       .  A
C744        C826   1.493       .  S
Cr745       O748   1.765       .  S
Cr746       O748   1.773       .  S
Cr747       O748   1.775       .  S
O749      Cr3287   2.006   1_554  S
O749        C757   1.265       .  A
O750       Cr767   1.979       .  S
O750        C751   1.257       .  A
C751        O752   1.260       .  A
C751        C954   1.472       .  S
O752       Cr768   2.002       .  S
O753       Cr768   1.987       .  S
O753        C754   1.263       .  A
C754        O755   1.267       .  A
C754       C3637   1.479       .  S
O755       Cr769   2.003       .  S
O756      Cr3289   1.985   1_554  S
O756        C757   1.266       .  A
C757       C1085   1.497       .  S
O758       Cr767   1.975       .  S
O758        C766   1.258       .  A
O759       Cr767   2.014       .  S
O759        C760   1.267       .  A
C760        O761   1.261       .  A
C760       C1069   1.485       .  S
O761       Cr768   1.962       .  S
O762       Cr768   1.994       .  S
O762        C763   1.262       .  A
C763        O764   1.265       .  A
C763        C861   1.474       .  S
O764       Cr769   2.002       .  S
O765       Cr769   2.014       .  S
O765        C766   1.265       .  A
C766        C794   1.488       .  S
Cr767      O3269   2.004       .  S
Cr767       O770   1.771       .  S
Cr768       O770   1.777       .  S
Cr769      O3276   1.983       .  S
Cr769       O770   1.770       .  S
O771       Cr789   2.016       .  S
O771        C779   1.269       .  A
O772       Cr789   1.977       .  S
O772        C773   1.256       .  A
C773        O774   1.263       .  A
C773        C909   1.482       .  S
O774       Cr790   2.013       .  S
O775       Cr790   1.996       .  S
O775        C776   1.265       .  A
C776        O777   1.265       .  A
C776       C1965   1.487       .  S
O777       Cr791   1.998       .  S
O778       Cr791   1.986       .  S
O778        C779   1.265       .  A
C779       C1021   1.503       .  S
O780       Cr789   1.975       .  S
O780        C788   1.256       .  A
O781       Cr789   2.018       .  S
O781       C3302   1.269       .  A
C782        O783   1.257       .  A
C782       O3301   1.267   1_554  A
C782       C1005   1.474       .  S
O783      Cr3310   1.965   1_554  S
O784      Cr3310   1.986       .  S
O784       C3305   1.262       .  A
C785        O786   1.268       .  A
C785       O3304   1.264       .  A
C785       C3330   1.474       .  S
O786       Cr791   2.004       .  S
O787       Cr791   2.015       .  S
O787        C788   1.263       .  A
C788        C797   1.494       .  S
Cr789       O792   1.774       .  S
Cr790      O3303   1.972       .  S
Cr790      O3304   1.994       .  S
Cr790       O792   1.780       .  S
Cr791       O792   1.778       .  S
C793        C794   1.405       .  A
C793        C798   1.410       .  A
C793        H800   1.084       .  S
C794        C795   1.417       .  A
C795        C796   1.404       .  A
C795        C802   1.509       .  S
C796        C797   1.406       .  A
C796        H801   1.084       .  S
C797        C798   1.419       .  A
C798        C799   1.507       .  S
C799        H803   1.111       .  S
C799        H804   1.109       .  S
C799        H805   1.111       .  S
C802        H806   1.109       .  S
C802        H807   1.109       .  S
C802        H808   1.111       .  S
C809        C810   1.402       .  A
C809        C814   1.404       .  A
C809        H816   1.085   1_554  S
C810       C3305   1.471   1_554  S
C810        C811   1.411       .  A
C811        C812   1.407       .  A
C811        C818   1.506       .  S
C812        C813   1.406       .  A
C812        H817   1.084       .  S
C813        C814   1.418       .  A
C814        C815   1.510       .  S
C815        H819   1.111   1_554  S
C815        H820   1.109       .  S
C815        H821   1.111       .  S
C818        H822   1.108       .  S
C818        H823   1.110       .  S
C818        H824   1.111       .  S
C825        C826   1.409       .  A
C825        C830   1.411   1_565  A
C825        H832   1.084       .  S
C826        C827   1.422       .  A
C827        C828   1.400   1_565  A
C827        C834   1.511       .  S
C828        C829   1.402       .  A
C828        H833   1.085       .  S
C829        C830   1.415       .  A
C830        C831   1.506       .  S
C831        H835   1.111       .  S
C831        H836   1.110       .  S
C831        H837   1.109       .  S
C834        H838   1.110       .  S
C834        H839   1.109       .  S
C834        H840   1.111       .  S
C841        C842   1.404       .  A
C841        C846   1.410       .  A
C841        H848   1.083       .  S
C842        C843   1.409       .  A
C843        C844   1.392       .  A
C843        C850   1.508       .  S
C844        C845   1.397       .  A
C844        H849   1.082       .  S
C845        C846   1.413       .  A
C846        C847   1.505       .  S
C847        H851   1.111       .  S
C847        H852   1.110       .  S
C847        H853   1.109       .  S
C850        H854   1.110       .  S
C850        H855   1.104       .  S
C850        H856   1.111       .  S
C857        C858   1.407   1_545  A
C857        C862   1.407       .  A
C857        H864   1.084       .  S
C858        C859   1.418       .  A
C859        C860   1.405       .  A
C859        C866   1.507       .  S
C860        C861   1.401   1_565  A
C860        H865   1.085       .  S
C861        C862   1.410       .  A
C862        C863   1.506       .  S
C863        H867   1.111       .  S
C863        H868   1.108       .  S
C863        H869   1.110       .  S
C866        H870   1.106       .  S
C866        H871   1.111       .  S
C866        H872   1.111       .  S
C873        C874   1.401       .  A
C873        C878   1.401       .  A
C873        H880   1.085       .  S
C874        C875   1.413       .  A
C875        C876   1.411       .  A
C875        C882   1.506       .  S
C876        C877   1.408       .  A
C876        H881   1.084       .  S
C877        C878   1.417       .  A
C878        C879   1.505       .  S
C879        H883   1.111       .  S
C879        H884   1.109       .  S
C879        H885   1.109       .  S
C882        H886   1.110       .  S
C882        H887   1.111       .  S
C882        H888   1.111       .  S
C889        C890   1.404       .  A
C889        C894   1.402   1_655  A
C889        H896   1.084       .  S
C890        C891   1.413       .  A
C891        C892   1.408   1_655  A
C891        C898   1.505       .  S
C892        C893   1.409       .  A
C892        H897   1.084       .  S
C893        C894   1.419       .  A
C894        C895   1.511       .  S
C895        H899   1.111       .  S
C895        H900   1.109       .  S
C895        H901   1.111       .  S
C898        H902   1.106       .  S
C898        H903   1.110       .  S
C898        H904   1.111       .  S
C905        C906   1.408       .  A
C905        C910   1.405       .  A
C905        H912   1.084       .  S
C906        C907   1.419       .  A
C907        C908   1.409       .  A
C907        C914   1.508       .  S
C908        C909   1.404       .  A
C908        H913   1.084       .  S
C909        C910   1.412       .  A
C910        C911   1.508       .  S
C911        H915   1.111       .  S
C911        H916   1.110       .  S
C911        H917   1.108       .  S
C914        H918   1.110       .  S
C914        H919   1.109       .  S
C914        H920   1.111       .  S
C921        C922   1.408       .  A
C921        C926   1.395       .  A
C921        H928   1.084       .  S
C922       C3129   1.484       .  S
C922        C923   1.419       .  A
C923        C924   1.406       .  A
C923        C930   1.507       .  S
C924        C925   1.399       .  A
C924        H929   1.082       .  S
C925        C926   1.408       .  A
C926        C927   1.509       .  S
C927        H931   1.111       .  S
C927        H932   1.107       .  S
C927        H933   1.110       .  S
C930        H934   1.109       .  S
C930        H936   1.111       .  S
C930       H3455   1.110       .  S
H935       C3450   1.110       .  S
C937        C938   1.402       .  A
C937        C942   1.402       .  A
C937        H944   1.081       .  S
C938        C939   1.418       .  A
C939        C940   1.411       .  A
C939       C3466   1.506   1_554  S
C940        C941   1.403       .  A
C940       H3465   1.084       .  S
C941        C942   1.413       .  A
C942        C943   1.508       .  S
C943        H947   1.111       .  S
C943        H948   1.110       .  S
C943        H949   1.107       .  S
H945       C3460   1.084       .  S
C946       C3459   1.507       .  S
C946        H950   1.109       .  S
C946        H951   1.110       .  S
C946        H952   1.111       .  S
C953        C954   1.401       .  A
C953        C958   1.404       .  A
C953        H960   1.084       .  S
C954        C955   1.413       .  A
C955        C956   1.403       .  A
C955        C962   1.507       .  S
C956        C957   1.401   1_655  A
C956       H3481   1.085   1_655  S
C957       C3098   1.468       .  S
C957        C958   1.413   1_455  A
C958        C959   1.507       .  S
C959        H963   1.111       .  S
C959        H965   1.110   1_655  S
C959       H3484   1.107       .  S
H961       C3476   1.084   1_455  S
C962        H967   1.110       .  S
C962        H968   1.111       .  S
C962       H3486   1.110       .  S
H964       C3479   1.106       .  S
H966       C3482   1.110       .  S
C969        C970   1.400       .  A
C969        C974   1.398       .  A
C969        H976   1.085       .  S
C970        C971   1.415       .  A
C971        C972   1.415       .  A
C971        C978   1.505       .  S
C972        C973   1.407       .  A
C972        H977   1.084       .  S
C973        C974   1.419       .  A
C974        C975   1.511       .  S
C975        H979   1.111       .  S
C975        H980   1.109       .  S
C975        H981   1.109       .  S
C978        H982   1.111       .  S
C978        H983   1.110       .  S
C978        H984   1.111       .  S
C985        C986   1.401       .  A
C985        C990   1.408       .  A
C985        H992   1.084       .  S
C986        C987   1.408       .  A
C987        C988   1.399       .  A
C987        C994   1.508       .  S
C988        C989   1.407       .  A
C988        H993   1.083       .  S
C989        C990   1.419       .  A
C990        C991   1.507       .  S
C991        H995   1.111       .  S
C991        H996   1.109       .  S
C991        H997   1.110       .  S
C994        H998   1.109       .  S
C994        H999   1.110       .  S
C994       H1000   1.111       .  S
C1001      C1002   1.406       .  A
C1001      C1006   1.410       .  A
C1001      H1008   1.084       .  S
C1002      C1003   1.420       .  A
C1003      C1004   1.402       .  A
C1003      C1010   1.507       .  S
C1004      C1005   1.397       .  A
C1004      H1009   1.085       .  S
C1005      C1006   1.412       .  A
C1006      C1007   1.506       .  S
C1007      H1011   1.111       .  S
C1007      H1012   1.110       .  S
C1007      H1013   1.111       .  S
C1010      H1014   1.105       .  S
C1010      H1015   1.111       .  S
C1010      H1016   1.111       .  S
C1017      C1018   1.402       .  A
C1017      C1022   1.406       .  A
C1017      H1024   1.084       .  S
C1018      C1019   1.410       .  A
C1019      C1020   1.410       .  A
C1019      C1026   1.506       .  S
C1020      C1021   1.413       .  A
C1020      H1025   1.083       .  S
C1021      C1022   1.424       .  A
C1022      C1023   1.509       .  S
C1023      H1027   1.111       .  S
C1023      H1028   1.110       .  S
C1023      H1029   1.109       .  S
C1026      H1030   1.109       .  S
C1026      H1031   1.111       .  S
C1026      H1032   1.111       .  S
C1033      C1034   1.409       .  A
C1033      C1038   1.418       .  A
C1033      H1040   1.084       .  S
C1034      C1035   1.414       .  A
C1035      C1036   1.395       .  A
C1035      C1042   1.513       .  S
C1036      C1037   1.409       .  A
C1036      H1041   1.083       .  S
C1037      C1038   1.420       .  A
C1038      C1039   1.505       .  S
C1039      H1043   1.111       .  S
C1039      H1044   1.110       .  S
C1039      H1045   1.110       .  S
C1042      H1046   1.109       .  S
C1042      H1047   1.109   1_545  S
C1042      H1048   1.111       .  S
C1049      C1050   1.403       .  A
C1049      C1054   1.404       .  A
C1049      H1056   1.084       .  S
C1050      C1051   1.414       .  A
C1051      C1052   1.412       .  A
C1051      C1058   1.506       .  S
C1052      C1053   1.409       .  A
C1052      H1057   1.084       .  S
C1053      C1054   1.420       .  A
C1054      C1055   1.511       .  S
C1055      H1059   1.111       .  S
C1055      H1060   1.109       .  S
C1055      H1061   1.111       .  S
C1058      H1062   1.111       .  S
C1058      H1063   1.110       .  S
C1058      H1064   1.111       .  S
C1065      C1066   1.402       .  A
C1065      C1070   1.409       .  A
C1065      H1072   1.084       .  S
C1066      C1067   1.415       .  A
C1067      C1068   1.397       .  A
C1067      C1074   1.507       .  S
C1068      C1069   1.402       .  A
C1068      H1073   1.084       .  S
C1069      C1070   1.419       .  A
C1070      C1071   1.506       .  S
C1071      H1075   1.111       .  S
C1071      H1076   1.110       .  S
C1071      H1077   1.109       .  S
C1074      H1078   1.111       .  S
C1074      H1079   1.107       .  S
C1074      H1080   1.111       .  S
C1081      C1082   1.400       .  A
C1081      C1086   1.410       .  A
C1081      H1088   1.084       .  S
C1082      C1083   1.412       .  A
C1083      C1084   1.400       .  A
C1083      C1090   1.510       .  S
C1084      C1085   1.405       .  A
C1084      H1089   1.075       .  S
C1085      C1086   1.425       .  A
C1086      C1087   1.508       .  S
C1087      H1091   1.111       .  S
C1087      H1092   1.110       .  S
C1087      H1093   1.110       .  S
C1090      H1094   1.110       .  S
C1090      H1095   1.109       .  S
C1090      H1096   1.111       .  S
C1097      C1098   1.400       .  A
C1097      C1102   1.403       .  A
C1097      H1104   1.085       .  S
C1098      C1099   1.410   1_455  A
C1099      C1100   1.403       .  A
C1099      C1106   1.507       .  S
C1100      C1101   1.405       .  A
C1100      H1105   1.084       .  S
C1101      C1102   1.416   1_655  A
C1102      C1103   1.506       .  S
C1103      H1107   1.111       .  S
C1103      H1108   1.107       .  S
C1103      H1109   1.110       .  S
C1106      H1110   1.108       .  S
C1106      H1111   1.110       .  S
C1106      H1112   1.111       .  S
C1113      C1114   1.404       .  A
C1113      C1118   1.396       .  A
C1113      H1120   1.085       .  S
C1114      C1115   1.416       .  A
C1115      C1116   1.415       .  A
C1115      C1122   1.504   1_554  S
C1116      C1117   1.409   1_565  A
C1116      H3641   1.084   1_564  S
C1117      C3274   1.487   1_554  S
C1117      C1118   1.414   1_545  A
C1118      C1119   1.507   1_565  S
C1119      H1123   1.111   1_545  S
C1119      H1125   1.106       .  S
C1119      H3644   1.108       .  S
H1121      C3636   1.084   1_545  S
C1122      H1127   1.110   1_556  S
C1122      H3646   1.104       .  S
C1122      H3648   1.111       .  S
H1124      C3639   1.108       .  S
H1126      C3642   1.102       .  S
H1128      C3642   1.111       .  S
C1129      C1130   1.406       .  A
C1129      C1134   1.395       .  A
C1129      H1136   1.084       .  S
C1130      C1131   1.421       .  A
C1131      C1132   1.412       .  A
C1131      C1138   1.506       .  S
C1132      C1133   1.404       .  A
C1132      H1137   1.084       .  S
C1133      C1134   1.409       .  A
C1134      C1135   1.505       .  S
C1135      H1139   1.111       .  S
C1135      H1140   1.110       .  S
C1135      H1141   1.110       .  S
C1138      H1142   1.110       .  S
C1138      H1143   1.110       .  S
C1138      H1144   1.111       .  S
C1145      C1146   1.403       .  A
C1145      C1150   1.408       .  A
C1145      H1152   1.084       .  S
C1146      C1147   1.410       .  A
C1147      C1148   1.400       .  A
C1147      C1154   1.506       .  S
C1148      C1149   1.404       .  A
C1148      H1153   1.084       .  S
C1149      C1150   1.416       .  A
C1150      C1151   1.507       .  S
C1151      H1155   1.111       .  S
C1151      H1156   1.109       .  S
C1151      H1157   1.110       .  S
C1154      H1158   1.110       .  S
C1154      H1159   1.109       .  S
C1154      H1160   1.111       .  S
C1161      C1162   1.403       .  A
C1161      C1166   1.410       .  A
C1161      H1168   1.084       .  S
C1162      C1163   1.412       .  A
C1163      C1164   1.401       .  A
C1163      C1170   1.506       .  S
C1164      C1165   1.402       .  A
C1164      H1169   1.084       .  S
C1165      C1166   1.417       .  A
C1166      C1167   1.507       .  S
C1167      H1171   1.111       .  S
C1167      H1172   1.110       .  S
C1167      H1173   1.109       .  S
C1170      H1174   1.109   1_554  S
C1170      H1175   1.109       .  S
C1170      H1176   1.111       .  S
C1177      C1178   1.407       .  A
C1177      C1182   1.401       .  A
C1177      H1184   1.084       .  S
C1178      C1179   1.419       .  A
C1179      C1180   1.413       .  A
C1179      C1186   1.506       .  S
C1180      C1181   1.407       .  A
C1180      H1185   1.084       .  S
C1181      C1182   1.417       .  A
C1182      C1183   1.510       .  S
C1183      H1187   1.111       .  S
C1183      H1188   1.111       .  S
C1183      H1189   1.108       .  S
C1186      H1190   1.110       .  S
C1186      H1191   1.110       .  S
C1186      H1192   1.111       .  S
C1193      C1194   1.406       .  A
C1193      C1198   1.400       .  A
C1193      H1200   1.084       .  S
C1194      C1195   1.424       .  A
C1195      C1196   1.415       .  A
C1195      C1202   1.506       .  S
C1196      C1197   1.403       .  A
C1196      H1201   1.084       .  S
C1197      C1198   1.415       .  A
C1198      C1199   1.504       .  S
C1199      H1203   1.108       .  S
C1199      H1204   1.109       .  S
C1199      H1205   1.108       .  S
C1202      H1206   1.110       .  S
C1202      H1207   1.108       .  S
C1202      H1208   1.111       .  S
C1209      C1210   1.396       .  A
C1209      C1214   1.402       .  A
C1209      H1216   1.083       .  S
C1210      C1211   1.411       .  A
C1211      C1212   1.410       .  A
C1211      C1218   1.505       .  S
C1212      C1213   1.408       .  A
C1212      H1217   1.084       .  S
C1213      C1214   1.421       .  A
C1214      C1215   1.507       .  S
C1215      H1219   1.111       .  S
C1215      H1220   1.110       .  S
C1215      H1221   1.110       .  S
C1218      H1222   1.109       .  S
C1218      H1223   1.109       .  S
C1218      H1224   1.111       .  S
C1225      C1226   1.403       .  A
C1225      C1230   1.404       .  A
C1225      H1232   1.084       .  S
C1226      C1227   1.414       .  A
C1227      C1228   1.405       .  A
C1227      C1234   1.508       .  S
C1228      C1229   1.403       .  A
C1228      H3753   1.084       .  S
C1229      C3019   1.472       .  S
C1229      C1230   1.412       .  A
C1230      C1231   1.505       .  S
C1231      H1235   1.111       .  S
C1231      H1236   1.110       .  S
C1231      H1237   1.107       .  S
H1233      C3748   1.084   1_554  S
C1234      H1238   1.110       .  S
C1234      H1239   1.108       .  S
C1234      H1240   1.111       .  S
C1241      C1242   1.407       .  A
C1241      C1246   1.405       .  A
C1241      H1248   1.084       .  S
C1242      C1243   1.418       .  A
C1243      C1244   1.415       .  A
C1243      C1250   1.507       .  S
C1244      C1245   1.408       .  A
C1244      H1249   1.084       .  S
C1245      C1246   1.417       .  A
C1246      C1247   1.510       .  S
C1247      H1251   1.111       .  S
C1247      H1252   1.109       .  S
C1247      H1253   1.109       .  S
C1250      H1254   1.110       .  S
C1250      H1255   1.109       .  S
C1250      H1256   1.111       .  S
C1257      C1258   1.402       .  A
C1257      C1262   1.400       .  A
C1257      H1264   1.084       .  S
C1258      C1259   1.416       .  A
C1259      C1260   1.413       .  A
C1259      C1266   1.506       .  S
C1260      C1261   1.410       .  A
C1260      H1265   1.083       .  S
C1261      C1262   1.426       .  A
C1262      C1263   1.512       .  S
C1263      H1267   1.111       .  S
C1263      H1268   1.110       .  S
C1263      H1269   1.111       .  S
C1266      H1270   1.110       .  S
C1266      H1271   1.111       .  S
C1266      H1272   1.111       .  S
C1273      C1274   1.400       .  A
C1273      C1278   1.407       .  A
C1273      H1280   1.081       .  S
C1274      C1275   1.409       .  A
C1275      C1276   1.396       .  A
C1275      C1282   1.508       .  S
C1276      C1277   1.406       .  A
C1276      H1281   1.084       .  S
C1277      C1278   1.418       .  A
C1278      C1279   1.506       .  S
C1279      H1283   1.111       .  S
C1279      H1284   1.111       .  S
C1279      H1285   1.110       .  S
C1282      H1286   1.107       .  S
C1282      H1287   1.110       .  S
C1282      H1288   1.111       .  S
C1289      C1290   1.401       .  A
C1289      C1294   1.404       .  A
C1289      H1296   1.084       .  S
C1290      C1291   1.413       .  A
C1291      C1292   1.401       .  A
C1291      C1298   1.506       .  S
C1292      C1293   1.401       .  A
C1292      H1297   1.085       .  S
C1293      C1294   1.413       .  A
C1294      C1295   1.506       .  S
C1295      H1299   1.111       .  S
C1295      H1300   1.110       .  S
C1295      H1301   1.109       .  S
C1298      H1302   1.110       .  S
C1298      H1303   1.107       .  S
C1298      H1304   1.111       .  S
C1305      C1306   1.402       .  A
C1305      C1310   1.406       .  A
C1305      H1312   1.084       .  S
C1306      C1307   1.415       .  A
C1307      C1308   1.405       .  A
C1307      C1314   1.508       .  S
C1308      C1309   1.403       .  A
C1308      H1313   1.084       .  S
C1309      C1310   1.416       .  A
C1310      C1311   1.507       .  S
C1311      H1315   1.111       .  S
C1311      H1316   1.110       .  S
C1311      H1317   1.110       .  S
C1314      H1318   1.110       .  S
C1314      H1319   1.110       .  S
C1314      H1320   1.111       .  S
C1321      C1322   1.401       .  A
C1321      C1326   1.400       .  A
C1321      H1328   1.085       .  S
C1322      C1323   1.410       .  A
C1323      C1324   1.410       .  A
C1323      C1330   1.505       .  S
C1324      C1325   1.406       .  A
C1324      H1329   1.084       .  S
C1325      C1326   1.412       .  A
C1326      C1327   1.506       .  S
C1327      H1331   1.111       .  S
C1327      H1332   1.110       .  S
C1327      H1333   1.107       .  S
C1330      H1334   1.110       .  S
C1330      H1335   1.109       .  S
C1330      H1336   1.111       .  S
C1337      C1338   1.402       .  A
C1337      C1342   1.405       .  A
C1337      H1344   1.085       .  S
C1338      C1339   1.409       .  A
C1339      C1340   1.408       .  A
C1339      C1346   1.507       .  S
C1340      C1341   1.413       .  A
C1340      H1345   1.083       .  S
C1341      C3032   1.500       .  S
C1341      C1342   1.423       .  A
C1342      C1343   1.509       .  S
C1343      H1347   1.111       .  S
C1343      H1348   1.110       .  S
C1343      H3869   1.109       .  S
C1346      H1350   1.110       .  S
C1346      H1352   1.111       .  S
C1346      H3871   1.110       .  S
H1349      C3863   1.109       .  S
H1351      C3866   1.109       .  S
C1353      C1354   1.397       .  A
C1353      C1358   1.400       .  A
C1353      H1360   1.084       .  S
C1354      C1355   1.410       .  A
C1355      C1356   1.410       .  A
C1355      C1362   1.505       .  S
C1356      C1357   1.407       .  A
C1356      H1361   1.084       .  S
C1357      C1358   1.418       .  A
C1358      C1359   1.510       .  S
C1359      H1363   1.111       .  S
C1359      H1364   1.110       .  S
C1359      H1365   1.109       .  S
C1362      H1366   1.110       .  S
C1362      H1367   1.110       .  S
C1362      H1368   1.111       .  S
C1369      C1370   1.400       .  A
C1369      C1374   1.407       .  A
C1369      H1376   1.085       .  S
C1370      C1371   1.412       .  A
C1371      C1372   1.402       .  A
C1371      C1378   1.506       .  S
C1372      C1373   1.407       .  A
C1372      H1377   1.084       .  S
C1373      C1374   1.423       .  A
C1374      C1375   1.508       .  S
C1375      H1379   1.111       .  S
C1375      H1380   1.111       .  S
C1375      H1381   1.107       .  S
C1378      H1382   1.108       .  S
C1378      H1383   1.109       .  S
C1378      H1384   1.110       .  S
C1385      C1386   1.406       .  A
C1385      C1390   1.408       .  A
C1385      H1392   1.085       .  S
C1386      C1387   1.409       .  A
C1387      C1388   1.408       .  A
C1387      C1394   1.507       .  S
C1388      C1389   1.415       .  A
C1388      H1393   1.083       .  S
C1389      C1390   1.419       .  A
C1390      C1391   1.508       .  S
C1391      H1395   1.111       .  S
C1391      H1396   1.111       .  S
C1391      H1397   1.109       .  S
C1394      H1398   1.110       .  S
C1394      H1399   1.111       .  S
C1394      H1400   1.111       .  S
C1401      C1402   1.407       .  A
C1401      C1406   1.400       .  A
C1401      H1408   1.084       .  S
C1402      C1403   1.419       .  A
C1403      C1404   1.417       .  A
C1403      C1410   1.505       .  S
C1404      C1405   1.407       .  A
C1404      H1409   1.084       .  S
C1405      C1406   1.412       .  A
C1406      C1407   1.506       .  S
C1407      H1411   1.111       .  S
C1407      H1412   1.108       .  S
C1407      H3933   1.109       .  S
C1410      H1414   1.110       .  S
C1410      H1415   1.111       .  S
C1410      H1416   1.111       .  S
H1413      C3927   1.107       .  S
C1417      C1418   1.406       .  A
C1417      C1422   1.404       .  A
C1417      H1424   1.083       .  S
C1418      C1419   1.428       .  A
C1419      C1420   1.413       .  A
C1419      C1426   1.508       .  S
C1420      C1421   1.401       .  A
C1420      H1425   1.084       .  S
C1421      C1422   1.416       .  A
C1422      C1423   1.506       .  S
C1423      H1427   1.111       .  S
C1423      H1428   1.110       .  S
C1423      H1429   1.109       .  S
C1426      H1430   1.110       .  S
C1426      H1431   1.110       .  S
C1426      H1432   1.111       .  S
C1433      C1434   1.403       .  A
C1433      C1438   1.395       .  A
C1433      H1440   1.084       .  S
C1434      C1435   1.420       .  A
C1435      C1436   1.408       .  A
C1435      C1442   1.506       .  S
C1436      C1437   1.403       .  A
C1436      H1441   1.084       .  S
C1437      C1438   1.411       .  A
C1438      C1439   1.505       .  S
C1439      H1443   1.111       .  S
C1439      H1444   1.108       .  S
C1439      H1445   1.111       .  S
C1442      H1446   1.109       .  S
C1442      H1447   1.110       .  S
C1442      H1448   1.111       .  S
C1449      C1450   1.407       .  A
C1449      C1454   1.392       .  A
C1449      H1456   1.083       .  S
C1450      C1451   1.420       .  A
C1451      C1452   1.410       .  A
C1451      C1458   1.506       .  S
C1452      C1453   1.402       .  A
C1452      H1457   1.083       .  S
C1453      C1454   1.408       .  A
C1454      C1455   1.510       .  S
C1455      H1459   1.111       .  S
C1455      H1460   1.109       .  S
C1455      H1461   1.107       .  S
C1458      H1462   1.110       .  S
C1458      H1463   1.109       .  S
C1458      H1464   1.111       .  S
C1465      C1466   1.405       .  A
C1465      C1470   1.409       .  A
C1465      H1472   1.084       .  S
C1466      C1467   1.422       .  A
C1467      C1468   1.407       .  A
C1467      C1474   1.509       .  S
C1468      C1469   1.402       .  A
C1468      H1473   1.085       .  S
C1469      C1470   1.415       .  A
C1470      C1471   1.503       .  S
C1471      H1475   1.111       .  S
C1471      H1476   1.111       .  S
C1471      H1477   1.109       .  S
C1474      H1478   1.108       .  S
C1474      H1479   1.110       .  S
C1474      H1480   1.111       .  S
C1481      C1482   1.407       .  A
C1481      C1486   1.411       .  A
C1481      H1488   1.084       .  S
C1482      C1483   1.421       .  A
C1483      C4004   1.401       .  A
C1483      C1490   1.507       .  S
C1484      C1485   1.399       .  A
C1484      C4003   1.399   1_554  A
C1484      H1489   1.085       .  S
C1485      C4006   1.416   1_554  A
C1486      C4005   1.417       .  A
C1486      C4007   1.506       .  S
C1487      C4006   1.505   1_554  S
C1487      H1492   1.106       .  S
C1487      H1493   1.110       .  S
C1487      H4011   1.111   1_554  S
C1490      H1494   1.109       .  S
C1490      H1495   1.109       .  S
C1490      H4016   1.111       .  S
H1491      C4007   1.111       .  S
H1496      C4010   1.111   1_554  S
C1497      C1498   1.399       .  A
C1497      C1502   1.394       .  A
C1497      H1504   1.084       .  S
C1498      C1499   1.411       .  A
C1499      C1500   1.412       .  A
C1499      C1506   1.504       .  S
C1500      C1501   1.409       .  A
C1500      H1505   1.084       .  S
C1501      C1502   1.412       .  A
C1502      C1503   1.507       .  S
C1503      H1507   1.111       .  S
C1503      H1508   1.109       .  S
C1503      H1509   1.105       .  S
C1506      H1510   1.110       .  S
C1506      H1511   1.110       .  S
C1506      H1512   1.111       .  S
C1513      C1514   1.406       .  A
C1513      C1518   1.414       .  A
C1513      H1520   1.084       .  S
C1514      C1515   1.419       .  A
C1515      C1516   1.399       .  A
C1515      C1522   1.512       .  S
C1516      C1517   1.400       .  A
C1516      H1521   1.082       .  S
C1517      C1518   1.416       .  A
C1518      C1519   1.505       .  S
C1519      H1523   1.111       .  S
C1519      H1524   1.110       .  S
C1519      H1525   1.110       .  S
C1522      H1526   1.108       .  S
C1522      H1527   1.110       .  S
C1522      H1528   1.111       .  S
C1529      C1530   1.402       .  A
C1529      C1534   1.402       .  A
C1529      H1536   1.085       .  S
C1530      C1531   1.413       .  A
C1531      C1532   1.402       .  A
C1531      C1538   1.507       .  S
C1532      C1533   1.405       .  A
C1532      H1537   1.085       .  S
C1533      C2887   1.478       .  S
C1533      C1534   1.416       .  A
C1534      C4055   1.508   1_554  S
C1535      C4054   1.508       .  S
C1535      H1539   1.111       .  S
C1535      H1540   1.110       .  S
C1535      H1541   1.109       .  S
C1538      H1542   1.109       .  S
C1538      H1543   1.109       .  S
C1538      H1544   1.111       .  S
C1545      C1546   1.405       .  A
C1545      C1550   1.407       .  A
C1545      H1552   1.084       .  S
C1546      C1547   1.415       .  A
C1547      C1548   1.397       .  A
C1547      C1554   1.501       .  S
C1548      C1549   1.395       .  A
C1548      H1553   1.080       .  S
C1549      C1550   1.411       .  A
C1550      C1551   1.503       .  S
C1551      H1555   1.111       .  S
C1551      H1556   1.109       .  S
C1551      H1557   1.110       .  S
C1554      H1558   1.107       .  S
C1554      H1559   1.108       .  S
C1554      H1560   1.111       .  S
C1561      C1562   1.409       .  A
C1561      C1566   1.410       .  A
C1561      H1568   1.084       .  S
C1562      C1563   1.426       .  A
C1563      C4084   1.399   1_554  A
C1563      C1570   1.511       .  S
C1564      C1565   1.397       .  A
C1564      C4083   1.395       .  A
C1564      H1569   1.085       .  S
C1565      C4086   1.411       .  A
C1566      C4085   1.411   1_554  A
C1566      C4087   1.506   1_554  S
C1567      C4086   1.506       .  S
C1567      H1572   1.110       .  S
C1567      H1573   1.110       .  S
C1567      H4091   1.111       .  S
C1570      H1574   1.108       .  S
C1570      H1575   1.110       .  S
C1570      H1576   1.111       .  S
H1571      C4087   1.111   1_554  S
C1577      C1578   1.406       .  A
C1577      C1582   1.398   1_655  A
C1577      H1584   1.084       .  S
C1578      C1579   1.420       .  A
C1579      C1580   1.414   1_655  A
C1579      C1586   1.506       .  S
C1580      C1581   1.406       .  A
C1580      H1585   1.084       .  S
C1581      C1582   1.417       .  A
C1582      C1583   1.511       .  S
C1583      H1587   1.111       .  S
C1583      H1588   1.109       .  S
C1583      H1589   1.111       .  S
C1586      H1590   1.110       .  S
C1586      H1591   1.110       .  S
C1586      H1592   1.111       .  S
C1593      C1594   1.398       .  A
C1593      C1598   1.399       .  A
C1593      H1600   1.085       .  S
C1594      C1595   1.409       .  A
C1595      C1596   1.408       .  A
C1595      C1602   1.506       .  S
C1596      C1597   1.409       .  A
C1596      H1601   1.084       .  S
C1597      C1598   1.420       .  A
C1598      C1599   1.509       .  S
C1599      H1603   1.111       .  S
C1599      H1604   1.109       .  S
C1599      H1605   1.106       .  S
C1602      H1606   1.110       .  S
C1602      H1607   1.110       .  S
C1602      H1608   1.111       .  S
C1609      C1610   1.407       .  A
C1609      C1614   1.397       .  A
C1609      H1616   1.083       .  S
C1610      C1611   1.423   1_455  A
C1611      C1612   1.410       .  A
C1611      C1618   1.507       .  S
C1612      C1613   1.401       .  A
C1612      H1617   1.082       .  S
C1613      C1614   1.409   1_655  A
C1614      C1615   1.504       .  S
C1615      H1619   1.111       .  S
C1615      H1620   1.110       .  S
C1615      H1621   1.106       .  S
C1618      H1622   1.110   1_655  S
C1618      H1623   1.108       .  S
C1618      H1624   1.111       .  S
C1625      C1626   1.402       .  A
C1625      C1630   1.402       .  A
C1625      H1632   1.084       .  S
C1626      C1627   1.410       .  A
C1627      C1628   1.406       .  A
C1627      C1634   1.503   1_655  S
C1628      C1629   1.409       .  A
C1628      H1633   1.084       .  S
C1629      C1630   1.418       .  A
C1630      C1631   1.509       .  S
C1631      H1635   1.111       .  S
C1631      H1636   1.109       .  S
C1631      H1637   1.111       .  S
C1634      H1638   1.109       .  S
C1634      H1639   1.108       .  S
C1634      H1640   1.110       .  S
C1641      C1642   1.405       .  A
C1641      C1646   1.397       .  A
C1641      H1648   1.084       .  S
C1642      C1643   1.420       .  A
C1643      C1644   1.414       .  A
C1643      C1650   1.506       .  S
C1644      C1645   1.405       .  A
C1644      H1649   1.084       .  S
C1645      C1646   1.413       .  A
C1646      C1647   1.507       .  S
C1647      H1651   1.111       .  S
C1647      H1652   1.106       .  S
C1647      H1653   1.109       .  S
C1650      H1654   1.110       .  S
C1650      H1655   1.111       .  S
C1650      H1656   1.111       .  S
C1657      C1658   1.404       .  A
C1657      C1662   1.410       .  A
C1657      H1664   1.084       .  S
C1658      C1659   1.410       .  A
C1659      C1660   1.400       .  A
C1659      C1666   1.506       .  S
C1660      C1661   1.408       .  A
C1660      H1665   1.084       .  S
C1661      C1662   1.420       .  A
C1662      C1663   1.508       .  S
C1663      H1667   1.111       .  S
C1663      H1668   1.109       .  S
C1663      H1669   1.110       .  S
C1666      H1670   1.108       .  S
C1666      H1671   1.110       .  S
C1666      H1672   1.111       .  S
C1673      C1674   1.403       .  A
C1673      C1678   1.404       .  A
C1673      H1680   1.085       .  S
C1674      C1675   1.416       .  A
C1675      C1676   1.403       .  A
C1675      C1682   1.508       .  S
C1676      C1677   1.400       .  A
C1676      H1681   1.084       .  S
C1677      C1678   1.414       .  A
C1678      C1679   1.505       .  S
C1679      H1683   1.111       .  S
C1679      H1684   1.106       .  S
C1679      H1685   1.110       .  S
C1682      H1686   1.109       .  S
C1682      H1687   1.110       .  S
C1682      H1688   1.111       .  S
C1689      C1690   1.404       .  A
C1689      C1694   1.398       .  A
C1689      H1696   1.085       .  S
C1690      C1691   1.414       .  A
C1691      C1692   1.414       .  A
C1691      C1698   1.505       .  S
C1692      C1693   1.408       .  A
C1692      H1697   1.084       .  S
C1693      C1694   1.412       .  A
C1694      C1695   1.508       .  S
C1695      H1699   1.111       .  S
C1695      H1700   1.108       .  S
C1695      H1701   1.110       .  S
C1698      H1702   1.110       .  S
C1698      H1703   1.110       .  S
C1698      H1704   1.111       .  S
C1705      C1706   1.401       .  A
C1705      C1710   1.401       .  A
C1705      H1712   1.085       .  S
C1706      C1707   1.411       .  A
C1707      C1708   1.409       .  A
C1707      C1714   1.506       .  S
C1708      C1709   1.412       .  A
C1708      H1713   1.084       .  S
C1709      C1710   1.420       .  A
C1710      C1711   1.510       .  S
C1711      H1715   1.111       .  S
C1711      H1716   1.109       .  S
C1711      H1717   1.110       .  S
C1714      H1718   1.108       .  S
C1714      H1719   1.110       .  S
C1714      H1720   1.110       .  S
C1721      C1722   1.405       .  A
C1721      C1726   1.397       .  A
C1721      H1728   1.081       .  S
C1722      C1723   1.418       .  A
C1723      C1724   1.411       .  A
C1723      C1730   1.507       .  S
C1724      C1725   1.404       .  A
C1724      H1729   1.084       .  S
C1725      C1726   1.407       .  A
C1726      C1727   1.506       .  S
C1727      H1731   1.111       .  S
C1727      H1732   1.108       .  S
C1727      H1733   1.110       .  S
C1730      H1734   1.110       .  S
C1730      H1735   1.109       .  S
C1730      H1736   1.111       .  S
C1737      C1738   1.407       .  A
C1737      C1742   1.397       .  A
C1737      H1744   1.084       .  S
C1738      C1739   1.418       .  A
C1739      C1740   1.410       .  A
C1739      C1746   1.506       .  S
C1740      C1741   1.405       .  A
C1740      H1745   1.084       .  S
C1741      C1742   1.413       .  A
C1742      C1743   1.511       .  S
C1743      H1747   1.111       .  S
C1743      H1748   1.109       .  S
C1743      H1749   1.111       .  S
C1746      H1750   1.110       .  S
C1746      H1751   1.110       .  S
C1746      H1752   1.111       .  S
C1753      C1754   1.404       .  A
C1753      C1758   1.406       .  A
C1753      H1760   1.085       .  S
C1754      C4275   1.409   1_554  A
C1755      C1756   1.411       .  A
C1755      C4274   1.409       .  A
C1755      C1762   1.505       .  S
C1756      C4277   1.414   1_455  A
C1756      H1761   1.083   1_455  S
C1757      C2900   1.507   1_554  S
C1757      C1758   1.422   1_655  A
C1757      C4276   1.415   1_654  A
C1758      C1759   1.509   1_455  S
C1759      H1763   1.111       .  S
C1759      H1764   1.109       .  S
C1759      H1765   1.110       .  S
C1762      H1766   1.111       .  S
C1762      H1767   1.110       .  S
C1762      H1768   1.111       .  S
C1769      C1770   1.403       .  A
C1769      C1774   1.398       .  A
C1769      H1776   1.084       .  S
C1770      C1771   1.417       .  A
C1771      C1772   1.416       .  A
C1771      C1778   1.505       .  S
C1772      C1773   1.410       .  A
C1772      H1777   1.084       .  S
C1773      C1774   1.422       .  A
C1774      C1775   1.512       .  S
C1775      H1779   1.111       .  S
C1775      H1780   1.110       .  S
C1775      H1781   1.108       .  S
C1778      H1782   1.110       .  S
C1778      H1783   1.110       .  S
C1778      H1784   1.111       .  S
C1785      C1786   1.405       .  A
C1785      C1790   1.403       .  A
C1785      H1792   1.085       .  S
C1786      C1787   1.416       .  A
C1787      C1788   1.405       .  A
C1787      C1794   1.506       .  S
C1788      C1789   1.401       .  A
C1788      H1793   1.082       .  S
C1789      C1790   1.415       .  A
C1790      C1791   1.508       .  S
C1791      H1795   1.110       .  S
C1791      H1796   1.107       .  S
C1791      H1797   1.108       .  S
C1794      H1798   1.110       .  S
C1794      H1799   1.108       .  S
C1794      H1800   1.111       .  S
C1801      C1802   1.399       .  A
C1801      C1806   1.400       .  A
C1801      H1808   1.085       .  S
C1802      C1803   1.414       .  A
C1803      C1804   1.410       .  A
C1803      C1810   1.507       .  S
C1804      C1805   1.406       .  A
C1804      H1809   1.084       .  S
C1805      C1806   1.414       .  A
C1806      C1807   1.501       .  S
C1807      H1811   1.111       .  S
C1807      H1812   1.104       .  S
C1807      H1813   1.110       .  S
C1810      H1814   1.109       .  S
C1810      H1815   1.110       .  S
C1810      H1816   1.111       .  S
C1817      C1818   1.407       .  A
C1817      C1822   1.407       .  A
C1817      H1824   1.084       .  S
C1818      C1819   1.429       .  A
C1819      C1820   1.412       .  A
C1819      C1826   1.509       .  S
C1820      C1821   1.401       .  A
C1820      H1825   1.084       .  S
C1821      C1822   1.417       .  A
C1822      C1823   1.510       .  S
C1823      H1827   1.111       .  S
C1823      H1828   1.109       .  S
C1823      H1829   1.111       .  S
C1826      H1830   1.109       .  S
C1826      H1831   1.110       .  S
C1826      H1832   1.111       .  S
C1833      C1834   1.403       .  A
C1833      C1838   1.400   1_545  A
C1833      H1840   1.084   1_545  S
C1834      C1835   1.415       .  A
C1835      C1836   1.403       .  A
C1835      C1842   1.509       .  S
C1836      C1837   1.406   1_545  A
C1836      H1841   1.084       .  S
C1837      C1838   1.416       .  A
C1838      C1839   1.507       .  S
C1839      H1843   1.111       .  S
C1839      H1844   1.107       .  S
C1839      H1845   1.108       .  S
C1842      H1846   1.110       .  S
C1842      H1847   1.109       .  S
C1842      H1848   1.111       .  S
C1849      C1850   1.405       .  A
C1849      C1854   1.413       .  A
C1849      H1856   1.084       .  S
C1850      C1851   1.412       .  A
C1851      C1852   1.401       .  A
C1851      C1858   1.505       .  S
C1852      C1853   1.403       .  A
C1852      H1857   1.084       .  S
C1853      C1854   1.418       .  A
C1854      C1855   1.506       .  S
C1855      H1859   1.111       .  S
C1855      H1860   1.111       .  S
C1855      H1861   1.110       .  S
C1858      H1862   1.107       .  S
C1858      H1863   1.110       .  S
C1858      H1864   1.111       .  S
C1865      C1866   1.407       .  A
C1865      C1870   1.402   1_545  A
C1865      H1872   1.084       .  S
C1866      C1867   1.426   1_545  A
C1867      C1868   1.410       .  A
C1867      C1874   1.508       .  S
C1868      C1869   1.399       .  A
C1868      H1873   1.084       .  S
C1869      C1870   1.412       .  A
C1870      C1871   1.507       .  S
C1871      H1875   1.111       .  S
C1871      H1876   1.109       .  S
C1871      H1877   1.110       .  S
C1874      H1878   1.110   1_565  S
C1874      H1879   1.110   1_565  S
C1874      H1880   1.111       .  S
C1881      C1882   1.404       .  A
C1881      C1886   1.402       .  A
C1881      H1888   1.085       .  S
C1882      C1883   1.419       .  A
C1883      C1884   1.414       .  A
C1883      C1890   1.506       .  S
C1884      C1885   1.404       .  A
C1884      H1889   1.080       .  S
C1885      C1886   1.414       .  A
C1886      C1887   1.506       .  S
C1887      H1891   1.111       .  S
C1887      H1892   1.110       .  S
C1887      H1893   1.105       .  S
C1890      H1894   1.110       .  S
C1890      H1895   1.111       .  S
C1890      H1896   1.111       .  S
C1897      C1898   1.405       .  A
C1897      C1902   1.410       .  A
C1897      H1904   1.084       .  S
C1898      C1899   1.419       .  A
C1899      C1900   1.403       .  A
C1899      C1906   1.509       .  S
C1900      C1901   1.404       .  A
C1900      H1905   1.084       .  S
C1901      C1902   1.421       .  A
C1902      C1903   1.507       .  S
C1903      H1907   1.111       .  S
C1903      H1908   1.110       .  S
C1903      H1909   1.109       .  S
C1906      H1910   1.110       .  S
C1906      H1911   1.109       .  S
C1906      H1912   1.111       .  S
C1913      C1914   1.404       .  A
C1913      C4438   1.410       .  A
C1913      H1920   1.084       .  S
C1914      C1915   1.418       .  A
C1915      C1916   1.401       .  A
C1915      C1922   1.506       .  S
C1916      C4437   1.402       .  A
C1916      H4441   1.084       .  S
C1917      C1918   1.422   1_554  A
C1917      C4436   1.401       .  A
C1918      C4433   1.410       .  A
C1918      C1919   1.508       .  S
C1919      H1923   1.111       .  S
C1919      H1924   1.109   1_556  S
C1919      H1925   1.110   1_556  S
H1921      C4436   1.084       .  S
C1922      H1926   1.109       .  S
C1922      H1927   1.110       .  S
C1922      H1928   1.111       .  S
C1929      C1930   1.402       .  A
C1929      C1934   1.411       .  A
C1929      H1936   1.081       .  S
C1930      C1931   1.411       .  A
C1931      C1932   1.400       .  A
C1931      C1938   1.508       .  S
C1932      C1933   1.406       .  A
C1932      H1937   1.085       .  S
C1933      C2777   1.489       .  S
C1933      C1934   1.419       .  A
C1934      C1935   1.507       .  S
C1935      H1939   1.111       .  S
C1935      H1940   1.111       .  S
C1935      H4461   1.110       .  S
C1938      H1942   1.107       .  S
C1938      H1943   1.110       .  S
C1938      H1944   1.111       .  S
H1941      C4455   1.110       .  S
C1945      C1946   1.405       .  A
C1945      C1950   1.411       .  A
C1945      H1952   1.084       .  S
C1946      C1947   1.417       .  A
C1947      C1948   1.398       .  A
C1947      C1954   1.508       .  S
C1948      C1949   1.399       .  A
C1948      H1953   1.085       .  S
C1949      C1950   1.415       .  A
C1950      C1951   1.506       .  S
C1951      H1955   1.111       .  S
C1951      H1956   1.110       .  S
C1951      H1957   1.110       .  S
C1954      H1958   1.108       .  S
C1954      H1959   1.108       .  S
C1954      H1960   1.111       .  S
C1961      C1962   1.403       .  A
C1961      C1966   1.412       .  A
C1961      H1968   1.084       .  S
C1962      C1963   1.411       .  A
C1963      C1964   1.402       .  A
C1963      C1970   1.508       .  S
C1964      C1965   1.405       .  A
C1964      H1969   1.084       .  S
C1965      C1966   1.418       .  A
C1966      C1967   1.505       .  S
C1967      H1971   1.111       .  S
C1967      H1972   1.110       .  S
C1967      H1973   1.110       .  S
C1970      H1974   1.111       .  S
C1970      H1975   1.110       .  S
C1970      H1976   1.111       .  S
C1977      C1978   1.405       .  A
C1977      C1982   1.409   1_565  A
C1977      H1984   1.084       .  S
C1978      C1979   1.414       .  A
C1979      C1980   1.407   1_565  A
C1979      C1986   1.508       .  S
C1980      C1981   1.405       .  A
C1980      H1985   1.084       .  S
C1981      C1982   1.415       .  A
C1982      C1983   1.507       .  S
C1983      H1987   1.111       .  S
C1983      H1988   1.109       .  S
C1983      H1989   1.110       .  S
C1986      H1990   1.110       .  S
C1986      H1991   1.110       .  S
C1986      H1992   1.111       .  S
C1993      C1998   1.411   1_556  A
C1993      C4514   1.402       .  A
C1993      H2000   1.084       .  S
C1994      C1995   1.408       .  A
C1994      C4513   1.402       .  A
C1995      C4516   1.394       .  A
C1995      C2002   1.509       .  S
C1996      C1997   1.407       .  A
C1996      C4515   1.391   1_554  A
C1996      H2001   1.084       .  S
C1997      C1998   1.423       .  A
C1998      C1999   1.506       .  S
C1999      H2003   1.109       .  S
C1999      H2004   1.111       .  S
C1999      H2005   1.110       .  S
C2002      H2006   1.109       .  S
C2002      H2007   1.107       .  S
C2002      H2008   1.111       .  S
C2009      C2010   1.408       .  A
C2009      C2014   1.406       .  A
C2009      H2016   1.084       .  S
C2010      C2011   1.416       .  A
C2011      C2012   1.399       .  A
C2011      C2018   1.509       .  S
C2012      C2013   1.400       .  A
C2012      H2017   1.085       .  S
C2013      C2014   1.409       .  A
C2014      C2015   1.506       .  S
C2015      H2019   1.111       .  S
C2015      H2020   1.110       .  S
C2015      H2021   1.111       .  S
C2018      H2022   1.111       .  S
C2018      H2023   1.109       .  S
C2018      H2024   1.111       .  S
C2025      C2026   1.404       .  A
C2025      C2030   1.402       .  A
C2025      H2032   1.084       .  S
C2026      C2027   1.417       .  A
C2027      C2028   1.404       .  A
C2027      C2034   1.508       .  S
C2028      C2029   1.400       .  A
C2028      H2033   1.085       .  S
C2029      C2030   1.410       .  A
C2030      C2031   1.507       .  S
C2031      H2035   1.111       .  S
C2031      H2036   1.110       .  S
C2031      H2037   1.110       .  S
C2034      H2038   1.108       .  S
C2034      H2039   1.110       .  S
C2034      H2040   1.111       .  S
C2041      C2042   1.404       .  A
C2041      C2046   1.399       .  A
C2041      H2048   1.083       .  S
C2042      C2043   1.416       .  A
C2043      C2044   1.414       .  A
C2043      C2050   1.505       .  S
C2044      C2045   1.407       .  A
C2044      H2049   1.084       .  S
C2045      C2046   1.415       .  A
C2046      C2047   1.510       .  S
C2047      H2051   1.111       .  S
C2047      H2052   1.110       .  S
C2047      H2053   1.108       .  S
C2050      H2054   1.110       .  S
C2050      H2055   1.110       .  S
C2050      H2056   1.111       .  S
C2057      C2058   1.413       .  A
C2057      C2062   1.407       .  A
C2057      H2064   1.083       .  S
C2058      C2059   1.421       .  A
C2059      C2060   1.406       .  A
C2059      C2066   1.509       .  S
C2060      C2061   1.403       .  A
C2060      H2065   1.085       .  S
C2061      C2062   1.408       .  A
C2062      C2063   1.504       .  S
C2063      H2067   1.111       .  S
C2063      H2068   1.108       .  S
C2063      H2069   1.110       .  S
C2066      H2070   1.109       .  S
C2066      H2071   1.111       .  S
C2066      H2072   1.111       .  S
C2073      C2074   1.403       .  A
C2073      C2078   1.399       .  A
C2073      H2080   1.084       .  S
C2074      C2075   1.417       .  A
C2075      C2076   1.402       .  A
C2075      C2082   1.508       .  S
C2076      C2077   1.399       .  A
C2076      H2081   1.084       .  S
C2077      C2078   1.409       .  A
C2078      C2079   1.505       .  S
C2079      H2083   1.111       .  S
C2079      H2084   1.110       .  S
C2079      H2085   1.109       .  S
C2082      H2086   1.109       .  S
C2082      H2087   1.109       .  S
C2082      H2088   1.111       .  S
C2089      C2090   1.401       .  A
C2089      C2094   1.403       .  A
C2089      H2096   1.084       .  S
C2090      C2091   1.411       .  A
C2091      C2092   1.399       .  A
C2091      C2098   1.507       .  S
C2092      C2093   1.402       .  A
C2092      H2097   1.085       .  S
C2093      C2094   1.414       .  A
C2094      C2095   1.507       .  S
C2095      H2099   1.111       .  S
C2095      H2100   1.109       .  S
C2095      H2101   1.110       .  S
C2098      H2102   1.109       .  S
C2098      H2103   1.110       .  S
C2098      H2104   1.111       .  S
C2105      C2110   1.411       .  A
C2105      C4626   1.400   1_554  A
C2105      H2112   1.084       .  S
C2106      C2107   1.414       .  A
C2106      C4625   1.400       .  A
C2107      C2108   1.407       .  A
C2107      C2114   1.508       .  S
C2108      C2109   1.406       .  A
C2108      H2113   1.083   1_545  S
C2109      C2746   1.497   1_545  S
C2109      C4630   1.424       .  A
C2110      C4629   1.426       .  A
C2110      C2111   1.508       .  S
C2111      H2115   1.111       .  S
C2111      H2116   1.109       .  S
C2111      H2117   1.110       .  S
C2114      H2118   1.110       .  S
C2114      H2119   1.110       .  S
C2114      H2120   1.111       .  S
C2121      C2122   1.401       .  A
C2121      C2126   1.408       .  A
C2121      H2128   1.084       .  S
C2122      C2123   1.417       .  A
C2123      C2124   1.403       .  A
C2123      C2130   1.509       .  S
C2124      C2125   1.403       .  A
C2124      H2129   1.084       .  S
C2125      C2126   1.421       .  A
C2126      C2127   1.508       .  S
C2127      H2131   1.111       .  S
C2127      H2132   1.111       .  S
C2127      H2133   1.110       .  S
C2130      H2134   1.108       .  S
C2130      H2135   1.110       .  S
C2130      H2136   1.111       .  S
C2137      C2142   1.403       .  A
C2137      C4658   1.401       .  A
C2137      H2144   1.085       .  S
C2138      C2614   1.474   1_554  S
C2138      C2139   1.410       .  A
C2138      C4657   1.400   1_554  A
C2139      C2140   1.410       .  A
C2139      C2146   1.505       .  S
C2140      C2141   1.408       .  A
C2140      H2145   1.084       .  S
C2141      C4662   1.418   1_554  A
C2142      C4661   1.420       .  A
C2142      C2143   1.511       .  S
C2143      H2147   1.111       .  S
C2143      H2148   1.108       .  S
C2143      H2149   1.110       .  S
C2146      H2150   1.109       .  S
C2146      H2151   1.110       .  S
C2146      H2152   1.111       .  S
C2153      C2154   1.399       .  A
C2153      C2158   1.407       .  A
C2153      H2160   1.084       .  S
C2154      C2155   1.409       .  A
C2155      C2156   1.401       .  A
C2155      C2162   1.509       .  S
C2156      C2157   1.410       .  A
C2156      H2161   1.083       .  S
C2157      C2158   1.424       .  A
C2158      C2159   1.508       .  S
C2159      H2163   1.111       .  S
C2159      H2164   1.110       .  S
C2159      H2165   1.110       .  S
C2162      H2166   1.110       .  S
C2162      H2167   1.109       .  S
C2162      H2168   1.111       .  S
C2169      C2170   1.404       .  A
C2169      C2174   1.396       .  A
C2169      H2176   1.084       .  S
C2170      C2171   1.418       .  A
C2171      C2172   1.412       .  A
C2171      C2178   1.505       .  S
C2172      C2173   1.404       .  A
C2172      H2177   1.084       .  S
C2173      C2174   1.412       .  A
C2174      C2175   1.508       .  S
C2175      H2179   1.111       .  S
C2175      H2180   1.110       .  S
C2175      H2181   1.109       .  S
C2178      H2182   1.110       .  S
C2178      H2183   1.109       .  S
C2178      H2184   1.111       .  S
C2185      C2186   1.411       .  A
C2185      C2190   1.412       .  A
C2185      H2192   1.084       .  S
C2186      C2187   1.422       .  A
C2187      C2188   1.400       .  A
C2187      C2194   1.510       .  S
C2188      C2189   1.400       .  A
C2188      H2193   1.085       .  S
C2189      C2190   1.409       .  A
C2190      C2191   1.504       .  S
C2191      H2195   1.111       .  S
C2191      H2196   1.110       .  S
C2191      H2197   1.109       .  S
C2194      H2198   1.107       .  S
C2194      H2199   1.109       .  S
C2194      H2200   1.110       .  S
C2201      C2202   1.405       .  A
C2201      C2206   1.392       .  A
C2201      H2208   1.083       .  S
C2202      C2203   1.413       .  A
C2203      C2204   1.412       .  A
C2203      C2210   1.505       .  S
C2204      C2205   1.410       .  A
C2204      H2209   1.084       .  S
C2205      C2206   1.415       .  A
C2206      C2207   1.512       .  S
C2207      H2211   1.111       .  S
C2207      H2212   1.102       .  S
C2207      H2213   1.111       .  S
C2210      H2214   1.111       .  S
C2210      H2215   1.110       .  S
C2210      H2216   1.111       .  S
C2217      C2218   1.408       .  A
C2217      C4742   1.415   1_554  A
C2217      H2224   1.084       .  S
C2218      C2219   1.416       .  A
C2219      C4740   1.394   1_554  A
C2219      C2226   1.509       .  S
C2220      C2221   1.403       .  A
C2220      C4739   1.396       .  A
C2220      H2225   1.084       .  S
C2221      C2222   1.418       .  A
C2222      C4737   1.416       .  A
C2222      C2223   1.506       .  S
C2223      H2227   1.111       .  S
C2223      H2228   1.110       .  S
C2223      H2229   1.110       .  S
C2226      H2230   1.109       .  S
C2226      H2231   1.101       .  S
C2226      H2232   1.111       .  S
C2233      C2234   1.407       .  A
C2233      C2238   1.409       .  A
C2233      H2240   1.084       .  S
C2234      C2235   1.424       .  A
C2235      C2236   1.401       .  A
C2235      C2242   1.511       .  S
C2236      C2237   1.398       .  A
C2236      H2241   1.085       .  S
C2237      C2238   1.413       .  A
C2238      C2239   1.507       .  S
C2239      H2243   1.111       .  S
C2239      H2244   1.111       .  S
C2239      H2245   1.109       .  S
C2242      H2246   1.109       .  S
C2242      H2247   1.110       .  S
C2242      H2248   1.111       .  S
C2249      C2250   1.398       .  A
C2249      C2254   1.398       .  A
C2249      H2256   1.085       .  S
C2250      C2251   1.415       .  A
C2251      C2252   1.410       .  A
C2251      C2258   1.506       .  S
C2252      C2253   1.404       .  A
C2252      H2257   1.084       .  S
C2253      C2254   1.419       .  A
C2254      C2255   1.510       .  S
C2255      H2259   1.111       .  S
C2255      H2260   1.108       .  S
C2255      H2261   1.108       .  S
C2258      H2262   1.110       .  S
C2258      H2263   1.110       .  S
C2258      H2264   1.111       .  S
C2265      C2266   1.396       .  A
C2265      C2270   1.394       .  A
C2265      H2272   1.085       .  S
C2266      C2267   1.412       .  A
C2267      C2268   1.408       .  A
C2267      C2274   1.506       .  S
C2268      C2269   1.408       .  A
C2268      H2273   1.084       .  S
C2269      C2270   1.425       .  A
C2270      C2271   1.512       .  S
C2271      H2275   1.111       .  S
C2271      H2276   1.110       .  S
C2271      H2277   1.104       .  S
C2274      H2278   1.110       .  S
C2274      H2279   1.110       .  S
C2274      H2280   1.111       .  S
C2281      C2282   1.391       .  A
C2281      C4806   1.394       .  A
C2281      H2288   1.084       .  S
C2282      C4803   1.406       .  A
C2283      C2284   1.408   1_556  A
C2283      C4802   1.407       .  A
C2283      C4810   1.505       .  S
C2284      C2285   1.411       .  A
C2284      H2289   1.084       .  S
C2285      C2286   1.427       .  A
C2286      C4801   1.393   1_554  A
C2286      C2287   1.512       .  S
C2287      H2291   1.110       .  S
C2287      H2292   1.110       .  S
C2287      H2293   1.108       .  S
C2290      C4803   1.505       .  S
C2290      H2294   1.110       .  S
C2290      H2295   1.110       .  S
C2290      H4816   1.111       .  S
H2296      C4810   1.111   1_554  S
C2297      C2298   1.402       .  A
C2297      C2302   1.402       .  A
C2297      H2304   1.084       .  S
C2298      C2299   1.416       .  A
C2299      C2300   1.402       .  A
C2299      C2306   1.509       .  S
C2300      C2301   1.403       .  A
C2300      H2305   1.085   1_554  S
C2301      C2645   1.477   1_554  S
C2301      C2302   1.415       .  A
C2302      C2303   1.507       .  S
C2303      H2307   1.111       .  S
C2303      H2309   1.110       .  S
C2303      H4828   1.108       .  S
C2306      H2310   1.109       .  S
C2306      H2311   1.110       .  S
C2306      H2312   1.111       .  S
H2308      C4823   1.108       .  S
C2313      C2314   1.408       .  A
C2313      C2318   1.412       .  A
C2313      H2320   1.083       .  S
C2314      C2315   1.426       .  A
C2315      C2316   1.401       .  A
C2315      C2322   1.512       .  S
C2316      C2317   1.402       .  A
C2316      H2321   1.084       .  S
C2317      C2318   1.419       .  A
C2318      C2319   1.507       .  S
C2319      H2323   1.111       .  S
C2319      H2324   1.109       .  S
C2319      H2325   1.110       .  S
C2322      H2326   1.110       .  S
C2322      H2327   1.110       .  S
C2322      H2328   1.111       .  S
C2329      C2330   1.404       .  A
C2329      C2334   1.406       .  A
C2329      H2336   1.081       .  S
C2330      C2331   1.408       .  A
C2331      C2332   1.408       .  A
C2331      C2338   1.507       .  S
C2332      C2333   1.413       .  A
C2332      H2337   1.083       .  S
C2333      C2334   1.420       .  A
C2334      C2335   1.509       .  S
C2335      H2339   1.111       .  S
C2335      H2340   1.109       .  S
C2335      H2341   1.111       .  S
C2338      H2342   1.111       .  S
C2338      H2343   1.110       .  S
C2338      H2344   1.111       .  S
C2345      C2346   1.404       .  A
C2345      C2350   1.402       .  A
C2345      H2352   1.081       .  S
C2346      C2347   1.417       .  A
C2347      C2348   1.410       .  A
C2347      C2354   1.506       .  S
C2348      C2349   1.405       .  A
C2348      H2353   1.085       .  S
C2349      C2350   1.411       .  A
C2350      C2351   1.507       .  S
C2351      H2355   1.111       .  S
C2351      H2356   1.108       .  S
C2351      H2357   1.109       .  S
C2354      H2358   1.110       .  S
C2354      H2359   1.106       .  S
C2354      H2360   1.111       .  S
C2361      C2362   1.403       .  A
C2361      C2366   1.400       .  A
C2361      H2368   1.084       .  S
C2362      C2363   1.417       .  A
C2363      C2364   1.405       .  A
C2363      C2370   1.507       .  S
C2364      C2365   1.400       .  A
C2364      H2369   1.085       .  S
C2365      C2366   1.411       .  A
C2366      C2367   1.506       .  S
C2367      H2371   1.111       .  S
C2367      H2372   1.110       .  S
C2367      H2373   1.109       .  S
C2370      H2374   1.111       .  S
C2370      H2375   1.109       .  S
C2370      H2376   1.111       .  S
C2377      C2378   1.401       .  A
C2377      C2382   1.404       .  A
C2377      H2384   1.085       .  S
C2378      C2379   1.413       .  A
C2379      C2380   1.404       .  A
C2379      C2386   1.505       .  S
C2380      C2381   1.403       .  A
C2380      H2385   1.085       .  S
C2381      C2382   1.416       .  A
C2382      C2383   1.507       .  S
C2383      H2387   1.111       .  S
C2383      H2388   1.109       .  S
C2383      H2389   1.108       .  S
C2386      H2390   1.109       .  S
C2386      H2391   1.110       .  S
C2386      H2392   1.111       .  S
C2393      C2394   1.403       .  A
C2393      C2398   1.400       .  A
C2393      H2400   1.085       .  S
C2394      C2395   1.418       .  A
C2395      C2396   1.406       .  A
C2395      C2402   1.508       .  S
C2396      C2397   1.401       .  A
C2396      H2401   1.085       .  S
C2397      C2398   1.411       .  A
C2398      C2399   1.508       .  S
C2399      H2403   1.111       .  S
C2399      H2404   1.110       .  S
C2399      H2405   1.109       .  S
C2402      H2406   1.110       .  S
C2402      H2407   1.109       .  S
C2402      H2408   1.111       .  S
C2409      C2410   1.408       .  A
C2409      C2414   1.407       .  A
C2409      H2416   1.084       .  S
C2410      C2411   1.429       .  A
C2411      C2412   1.411       .  A
C2411      C2418   1.509       .  S
C2412      C2413   1.399       .  A
C2412      H2417   1.084       .  S
C2413      C2414   1.415       .  A
C2414      C2415   1.509       .  S
C2415      H2419   1.111       .  S
C2415      H2420   1.110       .  S
C2415      H2421   1.109       .  S
C2418      H2422   1.111       .  S
C2418      H2423   1.110       .  S
C2418      H2424   1.109       .  S
C2425      C2426   1.410   1_455  A
C2425      C2430   1.407       .  A
C2425      H2432   1.084       .  S
C2426      C2427   1.420   1_655  A
C2427      C2428   1.411       .  A
C2427      C2434   1.508   1_455  S
C2428      C2429   1.404       .  A
C2428      H2433   1.080       .  S
C2429      C2430   1.411       .  A
C2430      C2431   1.505       .  S
C2431      H2435   1.111       .  S
C2431      H2436   1.110       .  S
C2431      H2437   1.109       .  S
C2434      H2438   1.111       .  S
C2434      H2439   1.109       .  S
C2434      H2440   1.111       .  S
C2441      C2442   1.411       .  A
C2441      C2446   1.411       .  A
C2441      H2448   1.084       .  S
C2442      C2443   1.418       .  A
C2443      C2444   1.405       .  A
C2443      C2450   1.509       .  S
C2444      C2445   1.405       .  A
C2444      H2449   1.085       .  S
C2445      C2446   1.413       .  A
C2446      C2447   1.507       .  S
C2447      H2451   1.111       .  S
C2447      H2452   1.110       .  S
C2447      H2453   1.111       .  S
C2450      H2454   1.110       .  S
C2450      H2455   1.109       .  S
C2450      H2456   1.111       .  S
C2457      C2458   1.408       .  A
C2457      C2462   1.416       .  A
C2457      H2464   1.084       .  S
C2458      C2459   1.422       .  A
C2459      C2460   1.391       .  A
C2459      C2466   1.512       .  S
C2460      C2461   1.401       .  A
C2460      H2465   1.085       .  S
C2461      C2462   1.418       .  A
C2462      C2463   1.505       .  S
C2463      H2467   1.111       .  S
C2463      H2468   1.107       .  S
C2463      H2469   1.110       .  S
C2466      H2470   1.111       .  S
C2466      H2471   1.099       .  S
C2466      H2472   1.111       .  S
C2473      C2474   1.403       .  A
C2473      C2478   1.406       .  A
C2473      H2480   1.084       .  S
C2474      C2475   1.412       .  A
C2475      C2476   1.403       .  A
C2475      C2482   1.506       .  S
C2476      C2477   1.403       .  A
C2476      H2481   1.085       .  S
C2477      C2478   1.410       .  A
C2478      C2479   1.504       .  S
C2479      H2483   1.111       .  S
C2479      H2484   1.109       .  S
C2479      H2485   1.110       .  S
C2482      H2486   1.107       .  S
C2482      H2487   1.110       .  S
C2482      H2488   1.111       .  S
C2489      C2490   1.405       .  A
C2489      C2494   1.409       .  A
C2489      H2496   1.084       .  S
C2490      C2491   1.419       .  A
C2491      C2492   1.401       .  A
C2491      C2498   1.507       .  S
C2492      C2493   1.398       .  A
C2492      H2497   1.085       .  S
C2493      C2494   1.412       .  A
C2494      C2495   1.503       .  S
C2495      H2499   1.111       .  S
C2495      H2500   1.110       .  S
C2495      H2501   1.110       .  S
C2498      H2502   1.108       .  S
C2498      H2503   1.103       .  S
C2498      H2504   1.111       .  S
C2505      C2506   1.400       .  A
C2505      C2510   1.406       .  A
C2505      H2512   1.083       .  S
C2506      C2507   1.406       .  A
C2507      C2508   1.403       .  A
C2507      C2514   1.504       .  S
C2508      C2509   1.412       .  A
C2508      H2513   1.083       .  S
C2509      C2510   1.423       .  A
C2510      C2511   1.508       .  S
C2511      H2515   1.111       .  S
C2511      H2516   1.110       .  S
C2511      H2517   1.110       .  S
C2514      H2518   1.110       .  S
C2514      H2519   1.110       .  S
C2514      H2520   1.111       .  S
O2521     Cr2539   2.024       .  S
O2521      C2529   1.272       .  A
O2522     Cr2539   1.976       .  S
O2522      C2523   1.256       .  A
C2523      O2524   1.265       .  A
C2523      C4949   1.490       .  S
O2524     Cr2540   2.019       .  S
O2525     Cr2540   2.009       .  S
O2525      C2526   1.265       .  A
C2526      O2527   1.260       .  A
C2526      C4978   1.491       .  S
O2527     Cr2541   1.996       .  S
O2528     Cr2541   1.967       .  S
O2528      C2529   1.260       .  A
C2529      C5010   1.482       .  S
O2530     Cr2539   1.982       .  S
O2530      C2538   1.255       .  A
O2531     Cr2539   2.017       .  S
O2531      C2532   1.269       .  A
C2532      O2533   1.259       .  A
C2532      C5026   1.476       .  S
O2533     Cr2540   1.969       .  S
O2534     Cr2540   2.011       .  S
O2534      C2535   1.271       .  A
C2535      O2536   1.267       .  A
C2535      C4997   1.472       .  S
O2536     Cr2541   1.990       .  S
O2537     Cr2541   2.015       .  S
O2537      C2538   1.261       .  A
C2538      C4962   1.495       .  S
Cr2539     O2542   1.774       .  S
Cr2540     O2542   1.777       .  S
Cr2541     O2542   1.777       .  S
O2543     Cr2561   1.966       .  S
O2543      C2551   1.262       .  A
O2544     Cr2561   2.000       .  S
O2544      C2545   1.264       .  A
C2545      O2546   1.261       .  A
C2545      C4866   1.480       .  S
O2546     Cr2562   1.993       .  S
O2547     Cr2562   2.000       .  S
O2547      C2548   1.262       .  A
C2548      O2549   1.264       .  A
C2548      C4930   1.501       .  S
O2549     Cr2563   1.990       .  S
O2550     Cr2563   2.017       .  S
O2550      C2551   1.272       .  A
C2551      C4882   1.479       .  S
O2552     Cr2561   1.996       .  S
O2552      C2560   1.259       .  A
O2553     Cr2561   1.980       .  S
O2553      C2554   1.262       .  A
C2554      O2555   1.265       .  A
C2554      C4898   1.472       .  S
O2555     Cr2562   2.010       .  S
O2556     Cr2562   1.972       .  S
O2556      C2557   1.262       .  A
C2557      O2558   1.266       .  A
C2557      C4914   1.484       .  S
O2558     Cr2563   2.012       .  S
O2559     Cr2563   2.002       .  S
O2559      C2560   1.261       .  A
C2560      C4965   1.487       .  S
Cr2561     O2564   1.769       .  S
Cr2562     O2564   1.773       .  S
Cr2563     O2564   1.773       .  S
O2565     Cr2583   1.959       .  S
O2565      C2573   1.263       .  A
O2566     Cr2583   1.987       .  S
O2566      C2567   1.260       .  A
C2567      O2568   1.263       .  A
C2567      C4773   1.484       .  S
O2568     Cr2584   2.000       .  S
O2569     Cr2584   1.996       .  S
O2569      C2570   1.262       .  A
C2570      O2571   1.261       .  A
C2570      C4853   1.498       .  S
O2571     Cr2585   1.990       .  S
O2572     Cr2585   2.022       .  S
O2572      C2573   1.272       .  A
C2573      C4786   1.470       .  S
O2574     Cr2583   1.984       .  S
O2574      C2582   1.254       .  A
O2575     Cr2583   1.995       .  S
O2575      C2576   1.267       .  A
C2576      O2577   1.261       .  A
C2576      C4805   1.488       .  S
O2577     Cr2584   1.989       .  S
O2578     Cr2584   1.963       .  S
O2578      C2579   1.259       .  A
C2579      O2580   1.269       .  A
C2579      C4818   1.478       .  S
O2580     Cr2585   2.009       .  S
O2581     Cr2585   2.003       .  S
O2581      C2582   1.260       .  A
C2582      C4834   1.492       .  S
Cr2583     O2586   1.767       .  S
Cr2584     O2586   1.773       .  S
Cr2585     O2586   1.777       .  S
O2587     Cr2605   2.035       .  S
O2587      C2595   1.276       .  A
O2588     Cr2605   1.960       .  S
O2588      C2589   1.252       .  A
C2589      O2590   1.262       .  A
C2589      C4706   1.491       .  S
O2590     Cr2606   2.009       .  S
O2591     Cr2606   1.980       .  S
O2591      C2592   1.257       .  A
C2592      O2593   1.259       .  A
C2592      C4725   1.471       .  S
O2593     Cr2607   1.990       .  S
O2594     Cr2607   1.969       .  S
O2594      C2595   1.265       .  A
C2595      C4738   1.489       .  S
O2596     Cr2605   1.974       .  S
O2596      C2604   1.253       .  A
O2597     Cr2605   2.028       .  S
O2597      C2598   1.273       .  A
C2598      O2599   1.252       .  A
C2598      C4754   1.497       .  S
O2599     Cr2606   1.944       .  S
O2600     Cr2606   2.002       .  S
O2600      C2601   1.269       .  A
C2601      O2602   1.270       .  A
C2601      C4917   1.470       .  S
O2602     Cr2607   1.995       .  S
O2603     Cr2607   2.009       .  S
O2603      C2604   1.257       .  A
C2604      C4837   1.483       .  S
Cr2605     O2608   1.773       .  S
Cr2606     O2608   1.777       .  S
Cr2607     O2608   1.778       .  S
O2609      C2617   1.269       .  A
O2610     Cr2627   1.982       .  S
O2610      C2611   1.258       .  A
C2611      O2612   1.264       .  A
C2611      C4626   1.481       .  S
O2612     Cr2628   2.014       .  S
O2613     Cr2628   1.991       .  S
O2613      C2614   1.261       .  A
C2614      O2615   1.263       .  A
O2615     Cr2629   2.003       .  S
O2616      C2617   1.265       .  A
C2617      C4677   1.495       .  S
O2618     Cr2627   1.982       .  S
O2618      C2626   1.258       .  A
O2619     Cr2627   2.021       .  S
O2619      C2620   1.268       .  A
C2620      O2621   1.259       .  A
C2620      C4690   1.490       .  S
O2621     Cr2628   1.962       .  S
O2622     Cr2628   2.006       .  S
O2622      C2623   1.267       .  A
C2623      O2624   1.265       .  A
C2623      C4994   1.472       .  S
O2624     Cr2629   1.990       .  S
O2625     Cr2629   2.011       .  S
O2625      C2626   1.262       .  A
C2626      C4645   1.491       .  S
Cr2627     O2630   1.774       .  S
Cr2628     O2630   1.773       .  S
Cr2629     O2630   1.776       .  S
O2631     Cr2649   1.962       .  S
O2631      C2639   1.261       .  A
O2632     Cr2649   2.001       .  S
O2632      C2633   1.265       .  A
C2633      O2634   1.263       .  A
C2633      C4562   1.492       .  S
O2634     Cr2650   1.999       .  S
O2635     Cr2650   2.015       .  S
O2635      C2636   1.266       .  A
C2636      O2637   1.258       .  A
C2636      C4578   1.500       .  S
O2637     Cr2651   1.977       .  S
O2638     Cr2651   2.011       .  S
O2638      C2639   1.270       .  A
C2639      C4594   1.471       .  S
O2640     Cr2649   1.997       .  S
O2640      C2648   1.259       .  A
O2641     Cr2649   1.977       .  S
C2642      O2643   1.267       .  A
C2642      C4610   1.467       .  S
O2644     Cr2650   1.969   1_554  S
O2644      C2645   1.259   1_554  A
C2645      O2646   1.267       .  A
O2646     Cr2651   2.010       .  S
O2647     Cr2651   1.996       .  S
O2647      C2648   1.260       .  A
C2648      C4642   1.482       .  S
Cr2649     O2652   1.768       .  S
Cr2650     O2652   1.772       .  S
Cr2651     O2652   1.769       .  S
O2653     Cr2671   1.982       .  S
O2653      C2661   1.258       .  A
O2654     Cr2671   2.020       .  S
O2654      C2655   1.270       .  A
C2655      O2656   1.260       .  A
C2655      C4514   1.469       .  S
O2656     Cr2672   1.957       .  S
O2657     Cr2672   1.994       .  S
O2657      C2658   1.262       .  A
C2658      O2659   1.265       .  A
C2658      C4565   1.486       .  S
O2659     Cr2673   2.001       .  S
O2660     Cr2673   2.008       .  S
O2660      C2661   1.262       .  A
C2661      C4482   1.479       .  S
O2662     Cr2671   2.013       .  S
O2662      C2670   1.268       .  A
O2663     Cr2671   1.986       .  S
O2663      C2664   1.256       .  A
C2664      O2665   1.260       .  A
C2664      C4501   1.485       .  S
O2665     Cr2672   2.005       .  S
O2666     Cr2672   1.993       .  S
O2666      C2667   1.266       .  A
C2667      O2668   1.265       .  A
C2667      C4549   1.467       .  S
O2668     Cr2673   1.995       .  S
O2669     Cr2673   1.964       .  S
O2669      C2670   1.259       .  A
C2670      C4530   1.482       .  S
Cr2671     O2674   1.778       .  S
Cr2672     O2674   1.776       .  S
Cr2673     O2674   1.776       .  S
O2675     Cr2693   1.963       .  S
O2675      C2683   1.256       .  A
O2676     Cr2693   2.019       .  S
O2676      C2677   1.271       .  A
C2677      O2678   1.261       .  A
C2677      C4421   1.495       .  S
O2678     Cr2694   1.978       .  S
O2679     Cr2694   1.997       .  S
O2679      C2680   1.265       .  A
C2680      O2681   1.262       .  A
C2680      C4469   1.476       .  S
O2681     Cr2695   1.987       .  S
O2682     Cr2695   2.026       .  S
O2682      C2683   1.268       .  A
C2683      C4402   1.489       .  S
O2684     Cr2693   2.022       .  S
O2684      C2692   1.268       .  A
O2685     Cr2693   1.975       .  S
O2685      C2686   1.256       .  A
C2686      O2687   1.264       .  A
C2686      C4498   1.478       .  S
O2687     Cr2694   2.018       .  S
O2688     Cr2694   2.000       .  S
O2688      C2689   1.267       .  A
C2689      O2690   1.269       .  A
C2689      C4450   1.481       .  S
O2690     Cr2695   2.008       .  S
O2691     Cr2695   1.963       .  S
O2691      C2692   1.257       .  A
C2692      C4434   1.488       .  S
Cr2693     O2696   1.770       .  S
Cr2694     O2696   1.772       .  S
Cr2695     O2696   1.774       .  S
O2697     Cr2715   1.993       .  S
O2697      C2705   1.265       .  A
O2698     Cr2715   1.968       .  S
O2698      C2699   1.262       .  A
C2699      O2700   1.271       .  A
C2699      C4693   1.482       .  S
O2700     Cr2716   2.028       .  S
O2701     Cr2716   1.982       .  S
O2701      C2702   1.262       .  A
C2702      O2703   1.262       .  A
C2702      C4386   1.497       .  S
O2703     Cr2717   2.002       .  S
O2704     Cr2717   2.004       .  S
O2704      C2705   1.264       .  A
C2705      C4981   1.495       .  S
O2706     Cr2715   1.992       .  S
O2706      C2714   1.265       .  A
O2707     Cr2715   2.001       .  S
O2707      C2708   1.261       .  A
C2708      O2709   1.259       .  A
C2708      C4373   1.486       .  S
O2709     Cr2716   1.996       .  S
O2710     Cr2716   2.008       .  S
O2710      C2711   1.268       .  A
C2711      O2712   1.260       .  A
C2711      C4354   1.477       .  S
O2712     Cr2717   1.975       .  S
O2713     Cr2717   2.001       .  S
O2713      C2714   1.266       .  A
C2714      C4674   1.474       .  S
Cr2715     O2718   1.766       .  S
Cr2716     O2718   1.773       .  S
Cr2717     O2718   1.771       .  S
O2719     Cr2737   2.002       .  S
O2719      C2727   1.261       .  A
O2720     Cr2737   1.964       .  S
O2720      C2721   1.263       .  A
C2721      O2722   1.271       .  A
C2721      C4613   1.473       .  S
O2722     Cr2738   2.011       .  S
O2723     Cr2738   1.992       .  S
O2723      C2724   1.264       .  A
C2724      O2725   1.261       .  A
C2724      C4338   1.504       .  S
O2725     Cr2739   2.001       .  S
O2726     Cr2739   2.004       .  S
O2726      C2727   1.265       .  A
C2727      C4850   1.482       .  S
O2728     Cr2737   1.972       .  S
O2728      C2736   1.259       .  A
O2729     Cr2737   1.995       .  S
O2729      C2730   1.257       .  A
C2730      O2731   1.259       .  A
C2730      C4370   1.482       .  S
O2731     Cr2738   2.002       .  S
O2732     Cr2738   2.004       .  S
O2732      C2733   1.265       .  A
C2733      O2734   1.263       .  A
C2733      C4546   1.484       .  S
O2734     Cr2739   1.977       .  S
O2735     Cr2739   2.004       .  S
O2735      C2736   1.264       .  A
C2736      C4597   1.463       .  S
Cr2737     O2740   1.775       .  S
Cr2738     O2740   1.776       .  S
Cr2739     O2740   1.774       .  S
O2741     Cr2759   2.002       .  S
O2741      C2749   1.263       .  A
O2742      C2743   1.267       .  A
C2743      O2744   1.274       .  A
C2743      C4306   1.484       .  S
O2745     Cr2760   1.986       .  S
O2745      C2746   1.263       .  A
C2746      O2747   1.265       .  A
O2747     Cr2761   2.009       .  S
O2748     Cr2761   2.003       .  S
O2748      C2749   1.263       .  A
C2749      C4274   1.486       .  S
O2750     Cr2759   1.986       .  S
O2750      C2758   1.263       .  A
O2751     Cr2759   1.986       .  S
O2751      C2752   1.258       .  A
C2752      O2753   1.260       .  A
C2752      C4290   1.489       .  S
O2753     Cr2760   2.004       .  S
O2754     Cr2760   2.015       .  S
O2754      C2755   1.269       .  A
C2755      O2756   1.259       .  A
C2755      C4357   1.491       .  S
O2756     Cr2761   1.974       .  S
O2757     Cr2761   2.008       .  S
O2757      C2758   1.268       .  A
C2758      C4322   1.474       .  S
Cr2759     O2762   1.771       .  S
Cr2760     O2762   1.775       .  S
Cr2761     O2762   1.772       .  S
O2763     Cr2781   1.994       .  S
O2763      C2771   1.261       .  A
O2764     Cr2781   1.964       .  S
O2764      C2765   1.265       .  A
C2765      O2766   1.274       .  A
C2765      C4245   1.466       .  S
O2766     Cr2782   2.024       .  S
O2767     Cr2782   1.984       .  S
O2767      C2768   1.260       .  A
C2768      O2769   1.262       .  A
C2768      C4229   1.495       .  S
O2769     Cr2783   1.994       .  S
O2770     Cr2783   2.006       .  S
O2770      C2771   1.262       .  A
C2771      C4210   1.486       .  S
O2772     Cr2781   1.989       .  S
O2773     Cr2781   1.981       .  S
O2773      C2774   1.252       .  A
C2774      O2775   1.260       .  A
C2774      C4293   1.500       .  S
O2775     Cr2782   2.009       .  S
O2776     Cr2782   2.014       .  S
O2776      C2777   1.267       .  A
C2777      O2778   1.261       .  A
O2778     Cr2783   1.968       .  S
O2779      C2780   1.270   1_554  A
C2780      C4258   1.486       .  S
Cr2781     O2784   1.770       .  S
Cr2782     O2784   1.779       .  S
Cr2783     O2784   1.773       .  S
O2785     Cr2803   1.956       .  S
O2785      C2793   1.259       .  A
O2786     Cr2803   2.007       .  S
O2786      C2787   1.265       .  A
C2787      O2788   1.262       .  A
C2787      C4466   1.483       .  S
O2788     Cr2804   1.993       .  S
O2789     Cr2804   2.000       .  S
O2789      C2790   1.264       .  A
C2790      O2791   1.258       .  A
C2790      C4181   1.488       .  S
O2791     Cr2805   1.984       .  S
O2792     Cr2805   2.024       .  S
O2792      C2793   1.272       .  A
C2793      C4261   1.478       .  S
O2794     Cr2803   1.997       .  S
O2794      C2802   1.263       .  A
O2795     Cr2803   1.985       .  S
O2795      C2796   1.262       .  A
C2796      O2797   1.267       .  A
C2796      C4242   1.481       .  S
O2797     Cr2804   2.000       .  S
O2798     Cr2804   1.962       .  S
O2798      C2799   1.258       .  A
C2799      O2800   1.270       .  A
C2799      C4194   1.477       .  S
O2800     Cr2805   2.023       .  S
O2801     Cr2805   1.994       .  S
O2801      C2802   1.259       .  A
C2802      C4162   1.497       .  S
Cr2803     O2806   1.765       .  S
Cr2804     O2806   1.764       .  S
Cr2805     O2806   1.775       .  S
O2807     Cr2825   1.985       .  S
O2807      C2815   1.267       .  A
O2808     Cr2825   2.004       .  S
O2808      C2809   1.264       .  A
C2809      O2810   1.262       .  A
C2809      C4389   1.478       .  S
O2810     Cr2826   1.992       .  S
O2811     Cr2826   1.994       .  S
O2811      C2812   1.260       .  A
C2812      O2813   1.261       .  A
C2812      C4146   1.478   1_455  S
O2813     Cr2827   1.992       .  S
O2814     Cr2827   2.016       .  S
O2814      C2815   1.271       .  A
C2815      C4325   1.485       .  S
O2816     Cr2825   1.990       .  S
O2816      C2824   1.258       .  A
O2817     Cr2825   1.993       .  S
O2817      C2818   1.262       .  A
C2818      O2819   1.262       .  A
C2818      C4309   1.476       .  S
O2819     Cr2826   2.002       .  S
O2820     Cr2826   1.968       .  S
O2820      C2821   1.262       .  A
C2821      O2822   1.267       .  A
C2821      C4130   1.493       .  S
O2822     Cr2827   2.014       .  S
O2823     Cr2827   2.005       .  S
O2823      C2824   1.261       .  A
C2824      C4165   1.486       .  S
Cr2825     O2828   1.774       .  S
Cr2826     O2828   1.777       .  S
Cr2827     O2828   1.777       .  S
O2829     Cr2847   1.974       .  S
O2829      C2837   1.265       .  A
O2830     Cr2847   1.995       .  S
O2830      C2831   1.262       .  A
C2831      O2832   1.264       .  A
C2831      C4034   1.482       .  S
O2832     Cr2848   2.001       .  S
O2833     Cr2848   2.002       .  S
O2833      C2834   1.262       .  A
C2834      O2835   1.257       .  A
C2834      C4117   1.489       .  S
O2835     Cr2849   1.971       .  S
O2836     Cr2849   2.018       .  S
O2836      C2837   1.273       .  A
C2837      C4066   1.479       .  S
O2838     Cr2847   1.992       .  S
O2838      C2846   1.260       .  A
O2839     Cr2847   1.995       .  S
O2839      C2840   1.267       .  A
C2840      O2841   1.262       .  A
C2840      C4082   1.486       .  S
O2841     Cr2848   1.995       .  S
O2842     Cr2848   1.967       .  S
O2842      C2843   1.259       .  A
C2843      O2844   1.265       .  A
C2843      C4050   1.476       .  S
O2844     Cr2849   2.007       .  S
O2845     Cr2849   1.996       .  S
O2845      C2846   1.257       .  A
C2846      C4098   1.500       .  S
Cr2847     O2850   1.773       .  S
Cr2848     O2850   1.774       .  S
Cr2849     O2850   1.777       .  S
O2851     Cr2869   2.018       .  S
O2851      C2859   1.272       .  A
O2852     Cr2869   1.966       .  S
O2852      C2853   1.255       .  A
C2853      O2854   1.267       .  A
C2853      C3989   1.484       .  S
O2854     Cr2870   2.025       .  S
O2855     Cr2870   1.989       .  S
O2855      C2856   1.262       .  A
C2856      O2857   1.266       .  A
C2856      C4213   1.484       .  S
O2857     Cr2871   2.009       .  S
O2858     Cr2871   1.981       .  S
O2858      C2859   1.263       .  A
C2859      C4005   1.488       .  S
O2860     Cr2869   1.962       .  S
O2860      C2868   1.250       .  A
O2861     Cr2869   2.017       .  S
O2861      C2862   1.267       .  A
C2862      O2863   1.254       .  A
C2862      C4021   1.479       .  S
O2863     Cr2870   1.956       .  S
O2864     Cr2870   2.006       .  S
O2864      C2865   1.269       .  A
C2865      O2866   1.266       .  A
C2865      C4197   1.472       .  S
O2866     Cr2871   1.992       .  S
O2867     Cr2871   2.033       .  S
O2867      C2868   1.265       .  A
C2868      C4101   1.492       .  S
Cr2869     O2872   1.768       .  S
Cr2870     O2872   1.777       .  S
Cr2871     O2872   1.780       .  S
O2873     Cr2891   1.956       .  S
O2873      C2881   1.263       .  A
O2874     Cr2891   2.006       .  S
O2874      C2875   1.264       .  A
C2875      O2876   1.264       .  A
C2875      C3906   1.484       .  S
O2876     Cr2892   1.999       .  S
O2877     Cr2892   2.005       .  S
O2877      C2878   1.262       .  A
C2878      O2879   1.262       .  A
C2878      C3938   1.504       .  S
O2879     Cr2893   1.988       .  S
O2880     Cr2893   2.021       .  S
O2880      C2881   1.272       .  A
C2881      C3954   1.483       .  S
O2882     Cr2891   2.001       .  S
O2882      C2890   1.259       .  A
O2883     Cr2891   1.987       .  S
C2884      O2885   1.267       .  A
C2884      C3970   1.486       .  S
O2886     Cr2892   1.970   1_554  S
O2886      C2887   1.261       .  A
C2887      O2888   1.266   1_554  A
O2888     Cr2893   2.005       .  S
O2889     Cr2893   1.998       .  S
O2889      C2890   1.258       .  A
C2890      C3922   1.484       .  S
Cr2891     O2894   1.772       .  S
Cr2892     O2894   1.768       .  S
Cr2893     O2894   1.773       .  S
O2895      C2903   1.263       .  A
O2896     Cr2913   2.004       .  S
O2896      C2897   1.261       .  A
C2897      O2898   1.261       .  A
C2897      C3858   1.483       .  S
O2898     Cr2914   1.999       .  S
O2899     Cr2914   2.016       .  S
O2899      C2900   1.268       .  A
C2900      O2901   1.261   1_556  A
O2901     Cr2915   1.987   1_554  S
O2902      C2903   1.268       .  A
C2903      C3874   1.474       .  S
O2904     Cr2913   2.005       .  S
O2904      C2912   1.261       .  A
O2905     Cr2913   1.986       .  S
O2905      C2906   1.265       .  A
C2906      O2907   1.271       .  A
C2906      C3890   1.480       .  S
O2907     Cr2914   2.021       .  S
O2908     Cr2914   1.979       .  S
O2908      C2909   1.261       .  A
C2909      O2910   1.266       .  A
C2909      C4133   1.478       .  S
O2910     Cr2915   2.011       .  S
O2911     Cr2915   2.001       .  S
O2911      C2912   1.262       .  A
C2912      C3925   1.482       .  S
Cr2913     O2916   1.774       .  S
Cr2914     O2916   1.772       .  S
Cr2915     O2916   1.778       .  S
O2917     Cr2935   1.974       .  S
O2917      C2925   1.258       .  A
O2918     Cr2935   2.024       .  S
O2918      C2919   1.274       .  A
C2919      O2920   1.263       .  A
C2919      C3893   1.494       .  S
O2920     Cr2936   1.979       .  S
O2921     Cr2936   2.007       .  S
O2921      C2922   1.264       .  A
C2922      O2923   1.259       .  A
C2922      C3842   1.475       .  S
O2923     Cr2937   1.986       .  S
O2924     Cr2937   2.002       .  S
O2924      C2925   1.263       .  A
C2925      C4149   1.486       .  S
O2926     Cr2935   2.022       .  S
O2926      C2934   1.267       .  A
O2927     Cr2935   1.976       .  S
O2927      C2928   1.255       .  A
C2928      O2929   1.262       .  A
C2928      C3826   1.482       .  S
O2929     Cr2936   2.014       .  S
O2930     Cr2936   1.990       .  S
O2930      C2931   1.265       .  A
C2931      O2932   1.266       .  A
C2931      C3810   1.468       .  S
O2932     Cr2937   1.998       .  S
O2933     Cr2937   1.956       .  S
O2933      C2934   1.255       .  A
C2934      C3877   1.480       .  S
Cr2935     O2938   1.773       .  S
Cr2936     O2938   1.780       .  S
Cr2937     O2938   1.777       .  S
O2939     Cr2957   1.966       .  S
O2939      C2947   1.256       .  A
O2940     Cr2957   2.018       .  S
O2940      C2941   1.268       .  A
C2941      O2942   1.258       .  A
C2941      C3973   1.475       .  S
O2942     Cr2958   1.954       .  S
O2943     Cr2958   1.993       .  S
O2943      C2944   1.266       .  A
C2944      O2945   1.262       .  A
C2944      C4770   1.478       .  S
O2945     Cr2959   1.989       .  S
O2946     Cr2959   2.011       .  S
O2946      C2947   1.263       .  A
C2947      C4114   1.473       .  S
O2948     Cr2957   2.010       .  S
O2948      C2956   1.266       .  A
O2949     Cr2957   1.980       .  S
O2949      C2950   1.256       .  A
C2950      O2951   1.261       .  A
C2950      C3829   1.477       .  S
O2951     Cr2958   2.008       .  S
O2952     Cr2958   1.991       .  S
O2952      C2953   1.264       .  A
C2953      O2954   1.266       .  A
C2953      C3794   1.470       .  S
O2954     Cr2959   1.997       .  S
O2955     Cr2959   1.962       .  S
O2955      C2956   1.259       .  A
C2956      C3957   1.472       .  S
Cr2957     O2960   1.775       .  S
Cr2958     O2960   1.772       .  S
Cr2959     O2960   1.776       .  S
O2961     Cr2979   2.007       .  S
O2961      C2969   1.265       .  A
O2962     Cr2979   1.965       .  S
O2962      C2963   1.265       .  A
C2963      O2964   1.268       .  A
C2963      C4802   1.466       .  S
O2964     Cr2980   2.012       .  S
O2965     Cr2980   1.987       .  S
O2965      C2966   1.260       .  A
C2966      O2967   1.262       .  A
C2966      C3909   1.500       .  S
O2967     Cr2981   1.996       .  S
O2968     Cr2981   2.001       .  S
O2968      C2969   1.263       .  A
C2969      C4581   1.486       .  S
O2970     Cr2979   1.997       .  S
O2970      C2978   1.267       .  A
O2971     Cr2979   1.993       .  S
O2971      C2972   1.260       .  A
C2972      O2973   1.258       .  A
C2972      C3778   1.485       .  S
O2973     Cr2980   1.992       .  S
O2974     Cr2980   2.011       .  S
O2974      C2975   1.267       .  A
C2975      O2976   1.261       .  A
C2975      C3797   1.488       .  S
O2976     Cr2981   1.965       .  S
O2977     Cr2981   1.995       .  S
O2977      C2978   1.262       .  A
C2978      C4789   1.490       .  S
Cr2979     O2982   1.769       .  S
Cr2980     O2982   1.779       .  S
Cr2981     O2982   1.769       .  S
O2983     Cr3001   1.997       .  S
O2983      C2991   1.260       .  A
O2984     Cr3001   1.975       .  S
O2984      C2985   1.266       .  A
C2985      O2986   1.269       .  A
C2985      C4757   1.483       .  S
O2986     Cr3002   2.015       .  S
O2987     Cr3002   1.993       .  S
O2987      C2988   1.262       .  A
C2988      O2989   1.264       .  A
C2988      C3762   1.493       .  S
O2989     Cr3003   1.999       .  S
O2990     Cr3003   2.002       .  S
O2990      C2991   1.263       .  A
C2991      C4933   1.480       .  S
O2992     Cr3001   1.997       .  S
O2992      C3000   1.266       .  A
O2993     Cr3001   1.985       .  S
O2993      C2994   1.256       .  A
C2994      O2995   1.263       .  A
C2994      C3781   1.500       .  S
O2995     Cr3002   2.005       .  S
O2996     Cr3002   2.012       .  S
O2996      C2997   1.267       .  A
C2997      O2998   1.260       .  A
C2997      C3746   1.477       .  S
O2998     Cr3003   1.972       .  S
O2999     Cr3003   1.995       .  S
O2999      C3000   1.268       .  A
C3000      C4741   1.487       .  S
Cr3001     O3004   1.767       .  S
Cr3002     O3004   1.776       .  S
Cr3003     O3004   1.765       .  S
O3005     Cr3023   1.978       .  S
O3005      C3013   1.256       .  A
O3006     Cr3023   2.022       .  S
O3006      C3007   1.273       .  A
C3007      O3008   1.262       .  A
C3007      C3714   1.506       .  S
O3008     Cr3024   1.984       .  S
O3009     Cr3024   2.002       .  S
O3009      C3010   1.266       .  A
C3010      O3011   1.263       .  A
C3010      C4709   1.476       .  S
O3011     Cr3025   1.992       .  S
O3012     Cr3025   2.018       .  S
O3012      C3013   1.263       .  A
C3013      C3682   1.480       .  S
O3014     Cr3023   2.021       .  S
O3015     Cr3023   1.966       .  S
O3015      C3016   1.253       .  A
C3016      O3017   1.265       .  A
C3016      C3701   1.492       .  S
O3017     Cr3024   2.023       .  S
O3018     Cr3024   1.997       .  S
O3018      C3019   1.265       .  A
C3019      O3020   1.266       .  A
O3020     Cr3025   2.001       .  S
O3021      C3022   1.257       .  A
C3022      C3730   1.474       .  S
Cr3023     O3026   1.769       .  S
Cr3024     O3026   1.779       .  S
Cr3025     O3026   1.778       .  S
O3027     Cr3045   2.003       .  S
O3027      C3035   1.265       .  A
O3028      C3029   1.262       .  A
C3029      O3030   1.270       .  A
C3029      C3653   1.472       .  S
O3031     Cr3046   1.980       .  S
O3031      C3032   1.260       .  A
C3032      O3033   1.267       .  A
O3033     Cr3047   2.011       .  S
O3034     Cr3047   1.994       .  S
O3034      C3035   1.260       .  A
C3035      C3634   1.485       .  S
O3036     Cr3045   1.983       .  S
O3036      C3044   1.263       .  A
O3037     Cr3045   1.999       .  S
O3037      C3038   1.263       .  A
C3038      O3039   1.260       .  A
C3038      C3698   1.497       .  S
O3039     Cr3046   1.996       .  S
O3040     Cr3046   2.012       .  S
O3040      C3041   1.266       .  A
C3041      O3042   1.256       .  A
C3041      C3813   1.474       .  S
O3042     Cr3047   1.966       .  S
O3043     Cr3047   2.005       .  S
O3043      C3044   1.268       .  A
C3044      C3669   1.478       .  S
Cr3045     O3048   1.764       .  S
Cr3046     O3048   1.772       .  S
Cr3047     O3048   1.769       .  S
O3049     Cr3067   1.986       .  S
O3049      C3057   1.262       .  A
O3050     Cr3067   1.960       .  S
O3050      C3051   1.262       .  A
C3051      O3052   1.271       .  A
C3051      C3586   1.477       .  S
O3052     Cr3068   2.019       .  S
O3053     Cr3068   1.990       .  S
O3053      C3054   1.259       .  A
C3054      O3055   1.263       .  A
C3054      C4946   1.489       .  S
O3055     Cr3069   2.001       .  S
O3056     Cr3069   2.013       .  S
O3056      C3057   1.266       .  A
C3057      C3557   1.500       .  S
O3058     Cr3067   1.993       .  S
O3058      C3066   1.267       .  A
O3059     Cr3067   1.993       .  S
O3059      C3060   1.257       .  A
C3060      O3061   1.258       .  A
C3060      C3570   1.486       .  S
O3061     Cr3068   2.001       .  S
O3062     Cr3068   2.007       .  S
O3062      C3063   1.267       .  A
C3063      O3064   1.263       .  A
C3063      C3621   1.483       .  S
O3064     Cr3069   1.971       .  S
O3065     Cr3069   2.003       .  S
O3065      C3066   1.266       .  A
C3066      C3602   1.471       .  S
Cr3067     O3070   1.767       .  S
Cr3068     O3070   1.776       .  S
Cr3069     O3070   1.770       .  S
O3071     Cr3089   1.964       .  S
O3071      C3079   1.255       .  A
O3072     Cr3089   2.020       .  S
O3072      C3073   1.269       .  A
C3073      O3074   1.262       .  A
C3073      C3522   1.491       .  S
O3074     Cr3090   1.981       .  S
O3075     Cr3090   2.002       .  S
O3075      C3076   1.266       .  A
C3076      O3077   1.265       .  A
C3076      C4037   1.481       .  S
O3077     Cr3091   1.992       .  S
O3078     Cr3091   2.033       .  S
O3078      C3079   1.268       .  A
C3079      C3493   1.489       .  S
O3080     Cr3089   2.021       .  S
O3080      C3088   1.267       .  A
O3081     Cr3089   1.970       .  S
O3081      C3082   1.255       .  A
C3082      O3083   1.266       .  A
C3082      C3573   1.494       .  S
O3083     Cr3090   2.025       .  S
O3084     Cr3090   2.000       .  S
O3084      C3085   1.267       .  A
C3085      O3086   1.266       .  A
C3085      C3506   1.477       .  S
O3086     Cr3091   2.002       .  S
O3087     Cr3091   1.967       .  S
O3087      C3088   1.258       .  A
C3088      C3538   1.482       .  S
Cr3089     O3092   1.774       .  S
Cr3090     O3092   1.775       .  S
Cr3091     O3092   1.776       .  S
O3093     Cr3111   1.967       .  S
O3093      C3101   1.257       .  A
O3094      C3095   1.271       .  A
C3095      O3096   1.262       .  A
C3095      C5029   1.499       .  S
O3097     Cr3112   1.994       .  S
O3097      C3098   1.261       .  A
C3098      O3099   1.258       .  A
O3099     Cr3113   1.983       .  S
O3100     Cr3113   2.021       .  S
O3100      C3101   1.268       .  A
C3101      C4661   1.488       .  S
O3102     Cr3111   2.015       .  S
O3102      C3110   1.266       .  A
O3103     Cr3111   1.977       .  S
O3103      C3104   1.257       .  A
C3104      O3105   1.262       .  A
C3104      C3458   1.483       .  S
O3105     Cr3112   2.013       .  S
O3106     Cr3112   1.983       .  S
O3106      C3107   1.264       .  A
C3107      O3108   1.268       .  A
C3107      C3618   1.466       .  S
O3108     Cr3113   2.004       .  S
O3109     Cr3113   1.963       .  S
O3109      C3110   1.256       .  A
C3110      C5013   1.473       .  S
Cr3111     O3114   1.770       .  S
Cr3112     O3114   1.776       .  S
Cr3113     O3114   1.776       .  S
O3115     Cr3133   1.974       .  S
O3115      C3123   1.261       .  A
O3116     Cr3133   1.961       .  S
O3116      C3117   1.262       .  A
C3117      O3118   1.275       .  A
C3117      C4901   1.476       .  S
O3118     Cr3134   2.024       .  S
O3119     Cr3134   1.987       .  S
O3119      C3120   1.261       .  A
C3120      O3121   1.260       .  A
C3120      C3986   1.489       .  S
O3121     Cr3135   1.996       .  S
O3122     Cr3135   1.997       .  S
O3122      C3123   1.262       .  A
C3123      C4722   1.480       .  S
O3124     Cr3133   1.994       .  S
O3125     Cr3133   1.981       .  S
O3125      C3126   1.253       .  A
C3126      O3127   1.257       .  A
C3126      C3461   1.477       .  S
O3127     Cr3134   2.002       .  S
O3128     Cr3134   2.011       .  S
O3128      C3129   1.267       .  A
C3129      O3130   1.260       .  A
O3130     Cr3135   1.955       .  S
O3131      C3132   1.264       .  A
C3132      C4885   1.468       .  S
Cr3133     O3136   1.768       .  S
Cr3134     O3136   1.774       .  S
Cr3135     O3136   1.773       .  S
O3137     Cr3155   2.005       .  S
O3137      C3145   1.262       .  A
O3138     Cr3155   1.962       .  S
O3138      C3139   1.263       .  A
C3139      O3140   1.275       .  A
C3139      C4085   1.477       .  S
O3140     Cr3156   2.033       .  S
O3141     Cr3156   1.982       .  S
O3141      C3142   1.259       .  A
C3142      O3143   1.264       .  A
C3142      C3426   1.492       .  S
O3143     Cr3157   2.001       .  S
O3144     Cr3157   2.006       .  S
O3144      C3145   1.264       .  A
C3145      C3941   1.487       .  S
O3146     Cr3155   1.986       .  S
O3146      C3154   1.264       .  A
O3147     Cr3155   1.992       .  S
O3147      C3148   1.259       .  A
C3148      O3149   1.258       .  A
C3148      C3410   1.487       .  S
O3149     Cr3156   1.996       .  S
O3150     Cr3156   2.027       .  S
O3150      C3151   1.271       .  A
C3151      O3152   1.261       .  A
C3151      C3509   1.490       .  S
O3152     Cr3157   1.970       .  S
O3153     Cr3157   2.002       .  S
O3153      C3154   1.268       .  A
C3154      C4069   1.473       .  S
Cr3155     O3158   1.769       .  S
Cr3156     O3158   1.774       .  S
Cr3157     O3158   1.767       .  S
O3159     Cr3177   1.966       .  S
O3159      C3167   1.255       .  A
O3160     Cr3177   2.033       .  S
O3160      C3161   1.272       .  A
C3161      O3162   1.257       .  A
C3161      C4018   1.479       .  S
O3162     Cr3178   1.952       .  S
O3163     Cr3178   2.004       .  S
O3163      C3164   1.266       .  A
C3164      O3165   1.262       .  A
C3164      C4869   1.477       .  S
O3165     Cr3179   1.986       .  S
O3166     Cr3179   2.023       .  S
O3166      C3167   1.266       .  A
C3167      C4178   1.482       .  S
O3168     Cr3177   2.032       .  S
O3168      C3176   1.272       .  A
O3169     Cr3177   1.968       .  S
O3169      C3170   1.254       .  A
C3170      O3171   1.264       .  A
C3170      C3413   1.493       .  S
O3171     Cr3178   2.014       .  S
O3172     Cr3178   1.979       .  S
O3172      C3173   1.260       .  A
C3173      O3174   1.268       .  A
C3173      C3445   1.466       .  S
O3174     Cr3179   2.006       .  S
O3175     Cr3179   1.958       .  S
O3175      C3176   1.256       .  A
C3176      C4002   1.495       .  S
Cr3177     O3180   1.771       .  S
Cr3178     O3180   1.775       .  S
Cr3179     O3180   1.772       .  S
O3181     Cr3199   1.972       .  S
O3181      C3189   1.264       .  A
O3182     Cr3199   2.005       .  S
O3182      C3183   1.263       .  A
C3183      O3184   1.262       .  A
C3183      C3845   1.475       .  S
O3184     Cr3200   1.995       .  S
O3185     Cr3200   2.015       .  S
O3185      C3186   1.264       .  A
C3186      O3187   1.256       .  A
C3186      C3554   1.489   1_565  S
O3187     Cr3201   1.965       .  S
O3188     Cr3201   2.021       .  S
O3188      C3189   1.272       .  A
C3189      C3666   1.473       .  S
O3190     Cr3199   1.994       .  S
O3190      C3198   1.261       .  A
O3191     Cr3199   1.982       .  S
O3191      C3192   1.262       .  A
C3192      O3193   1.269       .  A
C3192      C3650   1.488       .  S
O3193     Cr3200   2.003       .  S
O3194     Cr3200   1.974       .  S
O3194      C3195   1.260       .  A
C3195      O3196   1.269       .  A
C3195      C3378   1.485       .  S
O3196     Cr3201   2.019       .  S
O3197     Cr3201   1.999       .  S
O3197      C3198   1.260       .  A
C3198      C3394   1.498       .  S
Cr3199     O3202   1.772       .  S
Cr3200     O3202   1.773       .  S
Cr3201     O3202   1.768       .  S
O3203     Cr3221   2.026       .  S
O3203      C3211   1.272       .  A
O3204     Cr3221   1.966       .  S
O3204      C3205   1.255       .  A
C3205      O3206   1.268       .  A
C3205      C3765   1.488       .  S
O3206     Cr3222   2.029       .  S
O3207     Cr3222   1.996       .  S
O3207      C3208   1.264       .  A
C3208      O3209   1.267       .  A
C3208      C4405   1.483       .  S
O3209     Cr3223   2.015       .  S
O3210     Cr3223   1.968       .  S
O3210      C3211   1.261       .  A
C3211      C3733   1.486       .  S
O3212     Cr3221   1.965       .  S
O3212      C3220   1.253       .  A
O3213     Cr3221   2.034       .  S
O3213      C3214   1.270       .  A
C3214      O3215   1.257       .  A
C3214      C3717   1.485       .  S
O3215     Cr3222   1.969       .  S
O3216     Cr3222   1.997       .  S
O3216      C3217   1.267       .  A
C3217      O3218   1.264       .  A
C3217      C3365   1.468       .  S
O3218     Cr3223   1.986       .  S
O3219     Cr3223   2.030       .  S
O3219      C3220   1.267       .  A
C3220      C3397   1.503       .  S
Cr3221     O3224   1.770       .  S
Cr3222     O3224   1.772       .  S
Cr3223     O3224   1.779       .  S
O3225     Cr3243   1.963       .  S
O3225      C3233   1.264       .  A
O3226     Cr3243   2.002       .  S
O3226      C3227   1.261       .  A
C3227      O3228   1.264       .  A
C3227      C4341   1.487       .  S
O3228     Cr3244   2.007       .  S
O3229     Cr3244   2.012       .  S
O3229      C3230   1.264       .  A
C3230      O3231   1.259       .  A
C3230      C3490   1.486       .  S
O3231     Cr3245   1.975       .  S
O3232     Cr3245   2.027       .  S
O3232      C3233   1.274       .  A
C3233      C4533   1.474       .  S
O3234     Cr3243   2.000       .  S
O3234      C3242   1.259       .  A
O3235     Cr3243   1.988       .  S
O3235      C3236   1.266       .  A
C3236      O3237   1.271       .  A
C3236      C4517   1.494       .  S
O3237     Cr3244   2.005       .  S
O3238     Cr3244   1.974       .  S
O3238      C3239   1.261       .  A
C3239      O3240   1.269       .  A
C3239      C3333   1.487       .  S
O3240     Cr3245   2.017       .  S
O3241     Cr3245   1.993       .  S
O3241      C3242   1.256       .  A
C3242      C3349   1.488       .  S
Cr3243     O3246   1.772       .  S
Cr3244     O3246   1.768       .  S
Cr3245     O3246   1.774       .  S
O3247     Cr3265   2.017       .  S
O3247      C3255   1.270       .  A
O3248     Cr3265   1.961       .  S
O3248      C3249   1.254       .  A
C3249      O3250   1.267       .  A
C3249      C4226   1.476       .  S
O3250     Cr3266   2.028       .  S
O3251     Cr3266   1.987       .  S
O3251      C3252   1.265       .  A
C3252      O3253   1.270       .  A
C3252      C3685   1.484       .  S
O3253     Cr3267   2.010       .  S
O3254     Cr3267   1.970       .  S
O3254      C3255   1.258       .  A
C3255      C4437   1.490       .  S
O3256     Cr3265   1.960       .  S
O3256      C3264   1.253       .  A
O3257     Cr3265   2.023       .  S
O3257      C3258   1.269       .  A
C3258      O3259   1.259       .  A
C3258      C4418   1.488       .  S
O3259     Cr3266   1.971       .  S
O3260     Cr3266   1.998       .  S
O3260      C3261   1.266       .  A
C3261      O3262   1.262       .  A
C3261      C3362   1.471       .  S
O3262     Cr3267   1.990       .  S
O3263     Cr3267   2.031       .  S
O3263      C3264   1.269       .  A
C3264      C3346   1.496       .  S
Cr3265     O3268   1.766       .  S
Cr3266     O3268   1.773       .  S
Cr3267     O3268   1.774       .  S
O3269      C3277   1.264       .  A
O3270     Cr3287   1.977       .  S
O3270      C3271   1.257       .  A
C3271      O3272   1.260       .  A
C3271      C3474   1.476       .  S
O3272     Cr3288   2.004       .  S
O3273     Cr3288   1.992       .  S
O3273      C3274   1.264       .  A
C3274      O3275   1.267       .  A
O3275     Cr3289   2.005       .  S
O3276      C3277   1.265       .  A
C3277      C3605   1.497       .  S
O3278     Cr3287   1.978       .  S
O3278      C3286   1.258       .  A
O3279     Cr3287   2.015       .  S
O3279      C3280   1.267       .  A
C3280      O3281   1.260       .  A
C3280      C3589   1.486       .  S
O3281     Cr3288   1.958       .  S
O3282     Cr3288   1.995       .  S
O3282      C3283   1.263       .  A
C3283      O3284   1.265       .  A
C3283      C3381   1.475       .  S
O3284     Cr3289   2.003       .  S
O3285     Cr3289   2.011       .  S
O3285      C3286   1.264       .  A
C3286      C3314   1.490       .  S
Cr3287     O3290   1.775       .  S
Cr3288     O3290   1.778       .  S
Cr3289     O3290   1.771       .  S
O3291     Cr3309   2.010       .  S
O3291      C3299   1.267       .  A
O3292     Cr3309   1.976       .  S
O3292      C3293   1.257       .  A
C3293      O3294   1.262       .  A
C3293      C3429   1.478       .  S
O3294     Cr3310   2.010       .  S
O3295     Cr3310   1.991       .  S
O3295      C3296   1.264       .  A
C3296      O3297   1.264       .  A
C3296      C4485   1.479       .  S
O3297     Cr3311   2.004       .  S
O3298     Cr3311   1.986       .  S
O3298      C3299   1.265       .  A
C3299      C3541   1.497       .  S
O3300     Cr3309   1.973       .  S
O3300      C3308   1.257       .  A
O3301     Cr3309   2.014       .  S
C3302      O3303   1.260       .  A
C3302      C3525   1.481       .  S
C3305      O3306   1.267       .  A
O3306     Cr3311   2.002       .  S
O3307     Cr3311   2.017       .  S
O3307      C3308   1.264       .  A
C3308      C3317   1.492       .  S
Cr3309     O3312   1.775       .  S
Cr3310     O3312   1.778       .  S
Cr3311     O3312   1.779       .  S
C3313      C3314   1.406       .  A
C3313      C3318   1.410       .  A
C3313      H3320   1.084       .  S
C3314      C3315   1.417       .  A
C3315      C3316   1.405       .  A
C3315      C3322   1.509       .  S
C3316      C3317   1.406       .  A
C3316      H3321   1.084       .  S
C3317      C3318   1.417       .  A
C3318      C3319   1.507       .  S
C3319      H3323   1.111       .  S
C3319      H3324   1.109       .  S
C3319      H3325   1.111       .  S
C3322      H3326   1.108       .  S
C3322      H3327   1.110       .  S
C3322      H3328   1.111       .  S
C3329      C3330   1.402       .  A
C3329      C3334   1.405       .  A
C3329      H3336   1.085       .  S
C3330      C3331   1.412       .  A
C3331      C3332   1.408       .  A
C3331      C3338   1.506       .  S
C3332      C3333   1.406       .  A
C3332      H3337   1.084       .  S
C3333      C3334   1.418       .  A
C3334      C3335   1.509       .  S
C3335      H3339   1.111       .  S
C3335      H3340   1.108       .  S
C3335      H3341   1.111       .  S
C3338      H3342   1.108       .  S
C3338      H3343   1.110       .  S
C3338      H3344   1.111       .  S
C3345      C3346   1.409       .  A
C3345      C3350   1.411   1_565  A
C3345      H3352   1.084       .  S
C3346      C3347   1.423       .  A
C3347      C3348   1.403   1_565  A
C3347      C3354   1.511       .  S
C3348      C3349   1.402       .  A
C3348      H3353   1.085       .  S
C3349      C3350   1.415       .  A
C3350      C3351   1.507       .  S
C3351      H3355   1.111       .  S
C3351      H3356   1.110       .  S
C3351      H3357   1.111       .  S
C3354      H3358   1.110       .  S
C3354      H3359   1.109       .  S
C3354      H3360   1.111       .  S
C3361      C3362   1.404       .  A
C3361      C3366   1.409       .  A
C3361      H3368   1.083       .  S
C3362      C3363   1.412       .  A
C3363      C3364   1.395       .  A
C3363      C3370   1.509       .  S
C3364      C3365   1.398       .  A
C3364      H3369   1.083       .  S
C3365      C3366   1.413       .  A
C3366      C3367   1.505       .  S
C3367      H3371   1.111       .  S
C3367      H3372   1.110       .  S
C3367      H3373   1.109       .  S
C3370      H3374   1.110       .  S
C3370      H3375   1.105       .  S
C3370      H3376   1.111       .  S
C3377      C3378   1.406   1_545  A
C3377      C3382   1.407       .  A
C3377      H3384   1.084       .  S
C3378      C3379   1.416       .  A
C3379      C3380   1.405       .  A
C3379      C3386   1.507       .  S
C3380      C3381   1.402   1_565  A
C3380      H3385   1.085       .  S
C3381      C3382   1.412       .  A
C3382      C3383   1.506       .  S
C3383      H3387   1.111       .  S
C3383      H3388   1.107       .  S
C3383      H3389   1.110       .  S
C3386      H3390   1.106       .  S
C3386      H3391   1.110       .  S
C3386      H3392   1.111       .  S
C3393      C3394   1.405       .  A
C3393      C3398   1.401       .  A
C3393      H3400   1.084       .  S
C3394      C3395   1.417       .  A
C3395      C3396   1.414       .  A
C3395      C3402   1.506       .  S
C3396      C3397   1.411       .  A
C3396      H3401   1.084       .  S
C3397      C3398   1.423       .  A
C3398      C3399   1.511       .  S
C3399      H3403   1.111       .  S
C3399      H3404   1.107       .  S
C3399      H3405   1.110       .  S
C3402      H3406   1.110       .  S
C3402      H3407   1.111       .  S
C3402      H3408   1.111       .  S
C3409      C3410   1.404       .  A
C3409      C3414   1.401   1_655  A
C3409      H3416   1.084       .  S
C3410      C3411   1.414       .  A
C3411      C3412   1.409   1_655  A
C3411      C3418   1.505       .  S
C3412      C3413   1.409       .  A
C3412      H3417   1.084       .  S
C3413      C3414   1.420       .  A
C3414      C3415   1.511       .  S
C3415      H3419   1.111       .  S
C3415      H3420   1.109       .  S
C3415      H3421   1.111       .  S
C3418      H3422   1.106       .  S
C3418      H3423   1.110       .  S
C3418      H3424   1.111       .  S
C3425      C3426   1.410       .  A
C3425      C3430   1.404       .  A
C3425      H3432   1.084       .  S
C3426      C3427   1.419       .  A
C3427      C3428   1.408       .  A
C3427      C3434   1.508       .  S
C3428      C3429   1.403       .  A
C3428      H3433   1.084       .  S
C3429      C3430   1.409       .  A
C3430      C3431   1.508       .  S
C3431      H3435   1.111       .  S
C3431      H3436   1.110       .  S
C3431      H3437   1.109       .  S
C3434      H3438   1.110       .  S
C3434      H3439   1.109       .  S
C3434      H3440   1.111       .  S
C3441      C3442   1.407       .  A
C3441      C3446   1.395       .  A
C3441      H3448   1.084       .  S
C3442      C3443   1.420       .  A
C3443      C3444   1.406       .  A
C3443      C3450   1.507   1_556  S
C3444      C3445   1.399       .  A
C3444      H3449   1.082       .  S
C3445      C3446   1.408       .  A
C3446      C3447   1.508       .  S
C3447      H3451   1.111       .  S
C3447      H3452   1.107       .  S
C3447      H3453   1.110       .  S
C3450      H3454   1.109       .  S
C3450      H3456   1.111       .  S
C3457      C3458   1.401       .  A
C3457      C3462   1.401       .  A
C3457      H3464   1.081       .  S
C3458      C3459   1.418       .  A
C3459      C3460   1.409       .  A
C3460      C3461   1.402       .  A
C3461      C3462   1.414       .  A
C3462      C3463   1.508       .  S
C3463      H3467   1.111       .  S
C3463      H3468   1.110       .  S
C3463      H3469   1.107       .  S
C3466      H3470   1.110       .  S
C3466      H3471   1.109       .  S
C3466      H3472   1.111       .  S
C3473      C3474   1.401   1_554  A
C3473      C3478   1.402       .  A
C3473      H3480   1.084       .  S
C3474      C3475   1.416       .  A
C3475      C3476   1.405       .  A
C3475      C3482   1.507       .  S
C3476      C3477   1.401   1_556  A
C3477      C3478   1.413       .  A
C3478      C3479   1.506       .  S
C3479      H3483   1.111       .  S
C3479      H3485   1.110       .  S
C3482      H3487   1.110       .  S
C3482      H3488   1.111       .  S
C3489      C3490   1.401       .  A
C3489      C3494   1.399       .  A
C3489      H3496   1.085       .  S
C3490      C3491   1.415       .  A
C3491      C3492   1.416       .  A
C3491      C3498   1.505       .  S
C3492      C3493   1.408       .  A
C3492      H3497   1.084       .  S
C3493      C3494   1.418       .  A
C3494      C3495   1.510       .  S
C3495      H3499   1.111       .  S
C3495      H3500   1.108       .  S
C3495      H3501   1.109       .  S
C3498      H3502   1.111       .  S
C3498      H3503   1.109       .  S
C3498      H3504   1.111       .  S
C3505      C3506   1.404       .  A
C3505      C3510   1.411       .  A
C3505      H3512   1.084       .  S
C3506      C3507   1.410       .  A
C3507      C3508   1.403       .  A
C3507      C3514   1.507       .  S
C3508      C3509   1.406       .  A
C3508      H3513   1.083       .  S
C3509      C3510   1.418       .  A
C3510      C3511   1.506       .  S
C3511      H3515   1.110       .  S
C3511      H3516   1.108       .  S
C3511      H3517   1.110       .  S
C3514      H3518   1.109       .  S
C3514      H3519   1.110       .  S
C3514      H3520   1.111       .  S
C3521      C3522   1.406       .  A
C3521      C3526   1.412       .  A
C3521      H3528   1.084       .  S
C3522      C3523   1.419       .  A
C3523      C3524   1.404       .  A
C3523      C3530   1.506       .  S
C3524      C3525   1.398       .  A
C3524      H3529   1.085       .  S
C3525      C3526   1.414       .  A
C3526      C3527   1.506       .  S
C3527      H3531   1.111       .  S
C3527      H3532   1.110       .  S
C3527      H3533   1.111       .  S
C3530      H3534   1.103       .  S
C3530      H3535   1.110       .  S
C3530      H3536   1.111       .  S
C3537      C3538   1.401       .  A
C3537      C3542   1.403       .  A
C3537      H3544   1.084       .  S
C3538      C3539   1.411       .  A
C3539      C3540   1.409       .  A
C3539      C3546   1.505       .  S
C3540      C3541   1.411       .  A
C3540      H3545   1.084       .  S
C3541      C3542   1.423       .  A
C3542      C3543   1.509       .  S
C3543      H3547   1.110       .  S
C3543      H3548   1.110       .  S
C3543      H3549   1.108       .  S
C3546      H3550   1.109       .  S
C3546      H3551   1.110       .  S
C3546      H3552   1.111       .  S
C3553      C3554   1.409       .  A
C3553      C3558   1.417       .  A
C3553      H3560   1.084       .  S
C3554      C3555   1.415       .  A
C3555      C3556   1.395       .  A
C3555      C3562   1.513       .  S
C3556      C3557   1.409       .  A
C3556      H3561   1.083       .  S
C3557      C3558   1.419       .  A
C3558      C3559   1.505       .  S
C3559      H3563   1.111       .  S
C3559      H3564   1.108       .  S
C3559      H3565   1.110       .  S
C3562      H3566   1.111       .  S
C3562      H3567   1.109   1_545  S
C3562      H3568   1.111       .  S
C3569      C3570   1.403       .  A
C3569      C3574   1.404       .  A
C3569      H3576   1.085       .  S
C3570      C3571   1.414       .  A
C3571      C3572   1.412       .  A
C3571      C3578   1.506       .  S
C3572      C3573   1.409       .  A
C3572      H3577   1.084       .  S
C3573      C3574   1.419       .  A
C3574      C3575   1.511       .  S
C3575      H3579   1.111       .  S
C3575      H3580   1.109       .  S
C3575      H3581   1.111       .  S
C3578      H3582   1.111       .  S
C3578      H3583   1.110       .  S
C3578      H3584   1.111       .  S
C3585      C3586   1.403       .  A
C3585      C3590   1.409       .  A
C3585      H3592   1.084       .  S
C3586      C3587   1.414       .  A
C3587      C3588   1.395       .  A
C3587      C3594   1.508       .  S
C3588      C3589   1.403       .  A
C3588      H3593   1.084       .  S
C3589      C3590   1.420       .  A
C3590      C3591   1.505       .  S
C3591      H3595   1.111       .  S
C3591      H3596   1.110       .  S
C3591      H3597   1.109       .  S
C3594      H3598   1.110       .  S
C3594      H3599   1.108       .  S
C3594      H3600   1.111       .  S
C3601      C3602   1.397       .  A
C3601      C3606   1.407       .  A
C3601      H3608   1.085       .  S
C3602      C3603   1.410       .  A
C3603      C3604   1.402       .  A
C3603      C3610   1.509       .  S
C3604      C3605   1.408       .  A
C3604      H3609   1.082       .  S
C3605      C3606   1.427       .  A
C3606      C3607   1.508       .  S
C3607      H3611   1.111       .  S
C3607      H3612   1.109       .  S
C3607      H3613   1.110       .  S
C3610      H3614   1.110       .  S
C3610      H3615   1.110       .  S
C3610      H3616   1.111       .  S
C3617      C3618   1.400       .  A
C3617      C3622   1.406       .  A
C3617      H3624   1.084       .  S
C3618      C3619   1.409   1_455  A
C3619      C3620   1.399       .  A
C3619      C3626   1.507       .  S
C3620      C3621   1.405       .  A
C3620      H3625   1.085       .  S
C3621      C3622   1.419   1_655  A
C3622      C3623   1.507       .  S
C3623      H3627   1.111       .  S
C3623      H3628   1.107       .  S
C3623      H3629   1.110       .  S
C3626      H3630   1.107       .  S
C3626      H3631   1.110       .  S
C3626      H3632   1.111       .  S
C3633      C3634   1.404       .  A
C3633      C3638   1.398       .  A
C3633      H3640   1.085       .  S
C3634      C3635   1.415       .  A
C3635      C3636   1.411       .  A
C3635      C3642   1.504       .  S
C3636      C3637   1.407   1_565  A
C3637      C3638   1.412   1_545  A
C3638      C3639   1.509   1_565  S
C3639      H3643   1.111       .  S
C3639      H3645   1.110       .  S
C3642      H3647   1.110       .  S
C3649      C3650   1.405       .  A
C3649      C3654   1.393       .  A
C3649      H3656   1.083       .  S
C3650      C3651   1.421       .  A
C3651      C3652   1.410       .  A
C3651      C3658   1.507       .  S
C3652      C3653   1.403       .  A
C3652      H3657   1.084       .  S
C3653      C3654   1.409       .  A
C3654      C3655   1.506       .  S
C3655      H3659   1.111       .  S
C3655      H3660   1.110       .  S
C3655      H3661   1.110       .  S
C3658      H3662   1.110       .  S
C3658      H3663   1.110       .  S
C3658      H3664   1.111       .  S
C3665      C3666   1.403       .  A
C3665      C3670   1.408       .  A
C3665      H3672   1.084       .  S
C3666      C3667   1.411       .  A
C3667      C3668   1.398       .  A
C3667      C3674   1.504       .  S
C3668      C3669   1.402       .  A
C3668      H3673   1.085       .  S
C3669      C3670   1.416       .  A
C3670      C3671   1.507       .  S
C3671      H3675   1.111       .  S
C3671      H3676   1.109       .  S
C3671      H3677   1.110       .  S
C3674      H3678   1.110       .  S
C3674      H3679   1.107       .  S
C3674      H3680   1.111       .  S
C3681      C3682   1.403       .  A
C3681      C3686   1.412       .  A
C3681      H3688   1.084       .  S
C3682      C3683   1.412       .  A
C3683      C3684   1.401       .  A
C3683      C3690   1.504       .  S
C3684      C3685   1.401       .  A
C3684      H3689   1.085       .  S
C3685      C3686   1.418       .  A
C3686      C3687   1.506       .  S
C3687      H3691   1.111       .  S
C3687      H3692   1.110       .  S
C3687      H3693   1.110       .  S
C3690      H3694   1.107       .  S
C3690      H3695   1.109       .  S
C3690      H3696   1.111       .  S
C3697      C3698   1.406       .  A
C3697      C3702   1.402       .  A
C3697      H3704   1.084       .  S
C3698      C3699   1.419       .  A
C3699      C3700   1.412       .  A
C3699      C3706   1.506       .  S
C3700      C3701   1.406       .  A
C3700      H3705   1.084       .  S
C3701      C3702   1.419       .  A
C3702      C3703   1.511       .  S
C3703      H3707   1.111       .  S
C3703      H3708   1.111       .  S
C3703      H3709   1.109       .  S
C3706      H3710   1.110       .  S
C3706      H3711   1.110       .  S
C3706      H3712   1.111       .  S
C3713      C3714   1.407       .  A
C3713      C3718   1.403       .  A
C3713      H3720   1.084       .  S
C3714      C3715   1.427       .  A
C3715      C3716   1.414       .  A
C3715      C3722   1.507       .  S
C3716      C3717   1.402       .  A
C3716      H3721   1.084       .  S
C3717      C3718   1.415       .  A
C3718      C3719   1.508       .  S
C3719      H3723   1.108       .  S
C3719      H3724   1.110       .  S
C3719      H3725   1.108       .  S
C3722      H3726   1.110       .  S
C3722      H3727   1.107       .  S
C3722      H3728   1.111       .  S
C3729      C3730   1.397       .  A
C3729      C3734   1.401       .  A
C3729      H3736   1.084       .  S
C3730      C3731   1.412       .  A
C3731      C3732   1.409       .  A
C3731      C3738   1.505       .  S
C3732      C3733   1.405       .  A
C3732      H3737   1.084       .  S
C3733      C3734   1.418       .  A
C3734      C3735   1.504       .  S
C3735      H3739   1.111       .  S
C3735      H3740   1.109       .  S
C3735      H3741   1.109       .  S
C3738      H3742   1.110       .  S
C3738      H3743   1.109       .  S
C3738      H3744   1.111       .  S
C3745      C3746   1.403       .  A
C3745      C3750   1.403       .  A
C3745      H3752   1.085       .  S
C3746      C3747   1.414       .  A
C3747      C3748   1.406       .  A
C3747      C3754   1.508       .  S
C3748      C3749   1.403       .  A
C3749      C3750   1.413       .  A
C3750      C3751   1.506       .  S
C3751      H3755   1.111       .  S
C3751      H3756   1.110       .  S
C3751      H3757   1.106       .  S
C3754      H3758   1.110       .  S
C3754      H3759   1.109       .  S
C3754      H3760   1.111   1_556  S
C3761      C3762   1.406       .  A
C3761      C3766   1.403       .  A
C3761      H3768   1.084       .  S
C3762      C3763   1.418       .  A
C3763      C3764   1.412       .  A
C3763      C3770   1.507       .  S
C3764      C3765   1.406       .  A
C3764      H3769   1.084       .  S
C3765      C3766   1.415       .  A
C3766      C3767   1.508       .  S
C3767      H3771   1.111       .  S
C3767      H3772   1.109       .  S
C3767      H3773   1.108       .  S
C3770      H3774   1.111       .  S
C3770      H3775   1.109       .  S
C3770      H3776   1.111       .  S
C3777      C3778   1.399       .  A
C3777      C3782   1.401       .  A
C3777      H3784   1.085       .  S
C3778      C3779   1.414       .  A
C3779      C3780   1.412       .  A
C3779      C3786   1.506       .  S
C3780      C3781   1.410       .  A
C3780      H3785   1.083       .  S
C3781      C3782   1.427       .  A
C3782      C3783   1.512       .  S
C3783      H3787   1.111       .  S
C3783      H3788   1.110       .  S
C3783      H3789   1.110       .  S
C3786      H3790   1.110       .  S
C3786      H3791   1.111       .  S
C3786      H3792   1.111       .  S
C3793      C3794   1.400       .  A
C3793      C3798   1.408       .  A
C3793      H3800   1.082       .  S
C3794      C3795   1.411       .  A
C3795      C3796   1.397       .  A
C3795      C3802   1.509       .  S
C3796      C3797   1.406       .  A
C3796      H3801   1.084       .  S
C3797      C3798   1.420       .  A
C3798      C3799   1.506       .  S
C3799      H3803   1.111       .  S
C3799      H3804   1.110       .  S
C3799      H3805   1.110       .  S
C3802      H3806   1.107       .  S
C3802      H3807   1.110       .  S
C3802      H3808   1.111       .  S
C3809      C3810   1.400       .  A
C3809      C3814   1.403       .  A
C3809      H3816   1.084       .  S
C3810      C3811   1.413       .  A
C3811      C3812   1.401       .  A
C3811      C3818   1.505       .  S
C3812      C3813   1.401       .  A
C3812      H3817   1.085       .  S
C3813      C3814   1.415       .  A
C3814      C3815   1.506       .  S
C3815      H3819   1.111       .  S
C3815      H3820   1.110       .  S
C3815      H3821   1.109       .  S
C3818      H3822   1.110       .  S
C3818      H3823   1.106       .  S
C3818      H3824   1.111       .  S
C3825      C3826   1.403       .  A
C3825      C3830   1.404       .  A
C3825      H3832   1.084       .  S
C3826      C3827   1.418       .  A
C3827      C3828   1.407       .  A
C3827      C3834   1.508       .  S
C3828      C3829   1.401       .  A
C3828      H3833   1.084       .  S
C3829      C3830   1.414       .  A
C3830      C3831   1.507       .  S
C3831      H3835   1.111       .  S
C3831      H3836   1.110       .  S
C3831      H3837   1.110       .  S
C3834      H3838   1.110       .  S
C3834      H3839   1.110       .  S
C3834      H3840   1.111       .  S
C3841      C3842   1.404       .  A
C3841      C3846   1.407       .  A
C3841      H3848   1.084       .  S
C3842      C3843   1.409       .  A
C3843      C3844   1.405       .  A
C3843      C3850   1.504       .  S
C3844      C3845   1.404       .  A
C3844      H3849   1.084       .  S
C3845      C3846   1.411       .  A
C3846      C3847   1.506       .  S
C3847      H3851   1.111       .  S
C3847      H3852   1.110       .  S
C3847      H3853   1.110       .  S
C3850      H3854   1.110       .  S
C3850      H3855   1.105       .  S
C3850      H3856   1.111       .  S
C3857      C3858   1.403       .  A
C3857      C3862   1.409       .  A
C3857      H3864   1.085       .  S
C3858      C3859   1.409   1_556  A
C3859      C3860   1.407       .  A
C3859      C3866   1.506       .  S
C3860      C3861   1.412   1_554  A
C3860      H3865   1.083       .  S
C3861      C3862   1.422       .  A
C3862      C3863   1.508       .  S
C3863      H3867   1.111       .  S
C3863      H3868   1.110       .  S
C3866      H3870   1.110       .  S
C3866      H3872   1.111       .  S
C3873      C3874   1.399       .  A
C3873      C3878   1.402       .  A
C3873      H3880   1.084       .  S
C3874      C3875   1.411       .  A
C3875      C3876   1.411       .  A
C3875      C3882   1.505       .  S
C3876      C3877   1.406       .  A
C3876      H3881   1.084       .  S
C3877      C3878   1.416       .  A
C3878      C3879   1.509       .  S
C3879      H3883   1.111       .  S
C3879      H3884   1.111       .  S
C3879      H3885   1.109       .  S
C3882      H3886   1.110       .  S
C3882      H3887   1.110       .  S
C3882      H3888   1.111       .  S
C3889      C3890   1.403       .  A
C3889      C3894   1.412       .  A
C3889      H3896   1.084       .  S
C3890      C3891   1.411       .  A
C3891      C3892   1.401       .  A
C3891      C3898   1.502       .  S
C3892      C3893   1.404       .  A
C3892      H3897   1.083       .  S
C3893      C3894   1.421       .  A
C3894      C3895   1.507       .  S
C3895      H3899   1.111       .  S
C3895      H3900   1.110       .  S
C3895      H3901   1.104       .  S
C3898      H3902   1.107       .  S
C3898      H3903   1.109       .  S
C3898      H3904   1.110       .  S
C3905      C3906   1.405       .  A
C3905      C3910   1.406       .  A
C3905      H3912   1.085       .  S
C3906      C3907   1.409       .  A
C3907      C3908   1.408       .  A
C3907      C3914   1.506       .  S
C3908      C3909   1.414       .  A
C3908      H3913   1.083       .  S
C3909      C3910   1.420       .  A
C3910      C3911   1.509       .  S
C3911      H3915   1.111       .  S
C3911      H3916   1.111       .  S
C3911      H3917   1.109       .  S
C3914      H3918   1.110       .  S
C3914      H3919   1.111       .  S
C3914      H3920   1.111       .  S
C3921      C3922   1.404       .  A
C3921      C3926   1.405       .  A
C3921      H3928   1.084       .  S
C3922      C3923   1.414       .  A
C3923      C3924   1.411       .  A
C3923      C3930   1.506   1_556  S
C3924      C3925   1.406       .  A
C3924      H3929   1.084   1_556  S
C3925      C3926   1.412       .  A
C3926      C3927   1.504       .  S
C3927      H3931   1.111       .  S
C3927      H3932   1.110       .  S
C3930      H3934   1.110       .  S
C3930      H3935   1.110       .  S
C3930      H3936   1.111       .  S
C3937      C3938   1.407       .  A
C3937      C3942   1.405       .  A
C3937      H3944   1.082       .  S
C3938      C3939   1.428       .  A
C3939      C3940   1.412       .  A
C3939      C3946   1.508       .  S
C3940      C3941   1.401       .  A
C3940      H3945   1.084       .  S
C3941      C3942   1.414       .  A
C3942      C3943   1.508       .  S
C3943      H3947   1.111       .  S
C3943      H3948   1.110       .  S
C3943      H3949   1.109       .  S
C3946      H3950   1.110       .  S
C3946      H3951   1.110       .  S
C3946      H3952   1.111       .  S
C3953      C3954   1.404       .  A
C3953      C3958   1.396       .  A
C3953      H3960   1.084       .  S
C3954      C3955   1.419       .  A
C3955      C3956   1.406       .  A
C3955      C3962   1.505       .  S
C3956      C3957   1.401       .  A
C3956      H3961   1.084       .  S
C3957      C3958   1.411       .  A
C3958      C3959   1.507       .  S
C3959      H3963   1.111       .  S
C3959      H3964   1.108       .  S
C3959      H3965   1.111       .  S
C3962      H3966   1.107       .  S
C3962      H3967   1.110       .  S
C3962      H3968   1.111       .  S
C3969      C3970   1.405       .  A
C3969      C3974   1.392       .  A
C3969      H3976   1.084       .  S
C3970      C3971   1.419       .  A
C3971      C3972   1.411       .  A
C3971      C3978   1.507       .  S
C3972      C3973   1.405       .  A
C3972      H3977   1.083       .  S
C3973      C3974   1.413       .  A
C3974      C3975   1.510       .  S
C3975      H3979   1.111       .  S
C3975      H3980   1.105       .  S
C3975      H3981   1.111       .  S
C3978      H3982   1.110       .  S
C3978      H3983   1.111       .  S
C3978      H3984   1.111       .  S
C3985      C3986   1.405       .  A
C3985      C3990   1.407       .  A
C3985      H3992   1.084       .  S
C3986      C3987   1.421       .  A
C3987      C3988   1.406       .  A
C3987      C3994   1.509       .  S
C3988      C3989   1.402       .  A
C3988      H3993   1.085       .  S
C3989      C3990   1.414       .  A
C3990      C3991   1.503       .  S
C3991      H3995   1.111       .  S
C3991      H3996   1.111       .  S
C3991      H3997   1.109       .  S
C3994      H3998   1.109       .  S
C3994      H3999   1.110       .  S
C3994      H4000   1.111       .  S
C4001      C4002   1.408       .  A
C4001      C4006   1.412       .  A
C4001      H4008   1.084       .  S
C4002      C4003   1.423       .  A
C4003      C4010   1.508       .  S
C4004      C4005   1.401       .  A
C4004      H4009   1.084       .  S
C4007      H4012   1.106       .  S
C4007      H4013   1.110       .  S
C4010      H4014   1.109       .  S
C4010      H4015   1.108       .  S
C4017      C4018   1.400       .  A
C4017      C4022   1.396       .  A
C4017      H4024   1.083       .  S
C4018      C4019   1.411       .  A
C4019      C4020   1.413       .  A
C4019      C4026   1.504       .  S
C4020      C4021   1.409       .  A
C4020      H4025   1.084       .  S
C4021      C4022   1.412       .  A
C4022      C4023   1.507       .  S
C4023      H4027   1.111       .  S
C4023      H4028   1.109       .  S
C4023      H4029   1.105       .  S
C4026      H4030   1.110       .  S
C4026      H4031   1.110       .  S
C4026      H4032   1.111       .  S
C4033      C4034   1.403       .  A
C4033      C4038   1.412       .  A
C4033      H4040   1.084       .  S
C4034      C4035   1.417       .  A
C4035      C4036   1.400       .  A
C4035      C4042   1.511       .  S
C4036      C4037   1.400       .  A
C4036      H4041   1.081       .  S
C4037      C4038   1.416       .  A
C4038      C4039   1.505       .  S
C4039      H4043   1.111       .  S
C4039      H4044   1.110       .  S
C4039      H4045   1.110       .  S
C4042      H4046   1.108       .  S
C4042      H4047   1.110       .  S
C4042      H4048   1.111       .  S
C4049      C4050   1.404       .  A
C4049      C4054   1.402       .  A
C4049      H4056   1.084       .  S
C4050      C4051   1.414       .  A
C4051      C4052   1.403       .  A
C4051      C4058   1.507       .  S
C4052      C4053   1.404       .  A
C4052      H4057   1.084       .  S
C4053      C4054   1.414       .  A
C4055      H4059   1.111       .  S
C4055      H4060   1.110       .  S
C4055      H4061   1.109       .  S
C4058      H4062   1.110       .  S
C4058      H4063   1.110       .  S
C4058      H4064   1.111       .  S
C4065      C4066   1.404       .  A
C4065      C4070   1.407       .  A
C4065      H4072   1.084       .  S
C4066      C4067   1.413       .  A
C4067      C4068   1.395       .  A
C4067      C4074   1.500       .  S
C4068      C4069   1.397       .  A
C4068      H4073   1.083       .  S
C4069      C4070   1.417       .  A
C4070      C4071   1.505       .  S
C4071      H4075   1.110       .  S
C4071      H4076   1.104       .  S
C4071      H4077   1.110       .  S
C4074      H4078   1.109       .  S
C4074      H4079   1.106       .  S
C4074      H4080   1.111       .  S
C4081      C4082   1.408       .  A
C4081      C4086   1.408       .  A
C4081      H4088   1.084       .  S
C4082      C4083   1.424       .  A
C4083      C4090   1.511       .  S
C4084      C4085   1.397       .  A
C4084      H4089   1.085       .  S
C4087      H4092   1.110       .  S
C4087      H4093   1.110       .  S
C4090      H4094   1.106       .  S
C4090      H4095   1.109       .  S
C4090      H4096   1.111       .  S
C4097      C4098   1.406       .  A
C4097      C4102   1.400   1_655  A
C4097      H4104   1.084       .  S
C4098      C4099   1.422       .  A
C4099      C4100   1.415   1_655  A
C4099      C4106   1.506       .  S
C4100      C4101   1.406       .  A
C4100      H4105   1.084       .  S
C4101      C4102   1.419       .  A
C4102      C4103   1.512       .  S
C4103      H4107   1.111       .  S
C4103      H4108   1.110       .  S
C4103      H4109   1.111       .  S
C4106      H4110   1.110       .  S
C4106      H4111   1.110       .  S
C4106      H4112   1.111       .  S
C4113      C4114   1.397       .  A
C4113      C4118   1.399       .  A
C4113      H4120   1.085       .  S
C4114      C4115   1.409       .  A
C4115      C4116   1.410       .  A
C4115      C4122   1.506       .  S
C4116      C4117   1.411       .  A
C4116      H4121   1.084       .  S
C4117      C4118   1.421       .  A
C4118      C4119   1.509       .  S
C4119      H4123   1.111       .  S
C4119      H4124   1.109       .  S
C4119      H4125   1.105       .  S
C4122      H4126   1.111       .  S
C4122      H4127   1.110       .  S
C4122      H4128   1.111       .  S
C4129      C4130   1.407       .  A
C4129      C4134   1.397       .  A
C4129      H4136   1.083       .  S
C4130      C4131   1.423   1_455  A
C4131      C4132   1.409       .  A
C4131      C4138   1.508       .  S
C4132      C4133   1.400       .  A
C4132      H4137   1.080       .  S
C4133      C4134   1.409   1_655  A
C4134      C4135   1.503       .  S
C4135      H4139   1.111       .  S
C4135      H4140   1.110       .  S
C4135      H4141   1.104       .  S
C4138      H4142   1.110       .  S
C4138      H4143   1.107       .  S
C4138      H4144   1.111       .  S
C4145      C4146   1.402       .  A
C4145      C4150   1.401       .  A
C4145      H4152   1.084       .  S
C4146      C4147   1.411       .  A
C4147      C4148   1.406       .  A
C4147      C4154   1.503   1_655  S
C4148      C4149   1.409       .  A
C4148      H4153   1.084       .  S
C4149      C4150   1.417       .  A
C4150      C4151   1.507       .  S
C4151      H4155   1.111       .  S
C4151      H4156   1.108       .  S
C4151      H4157   1.110       .  S
C4154      H4158   1.109       .  S
C4154      H4159   1.108       .  S
C4154      H4160   1.111       .  S
C4161      C4162   1.405       .  A
C4161      C4166   1.398       .  A
C4161      H4168   1.084       .  S
C4162      C4163   1.422       .  A
C4163      C4164   1.415       .  A
C4163      C4170   1.506       .  S
C4164      C4165   1.405       .  A
C4164      H4169   1.084       .  S
C4165      C4166   1.414       .  A
C4166      C4167   1.507       .  S
C4167      H4171   1.111       .  S
C4167      H4172   1.105       .  S
C4167      H4173   1.108       .  S
C4170      H4174   1.110       .  S
C4170      H4175   1.111       .  S
C4170      H4176   1.111       .  S
C4177      C4178   1.405       .  A
C4177      C4182   1.411       .  A
C4177      H4184   1.084       .  S
C4178      C4179   1.413       .  A
C4179      C4180   1.399       .  A
C4179      C4186   1.506       .  S
C4180      C4181   1.405       .  A
C4180      H4185   1.084       .  S
C4181      C4182   1.418       .  A
C4182      C4183   1.507       .  S
C4183      H4187   1.111       .  S
C4183      H4188   1.109       .  S
C4183      H4189   1.110       .  S
C4186      H4190   1.108       .  S
C4186      H4191   1.110       .  S
C4186      H4192   1.111       .  S
C4193      C4194   1.403       .  A
C4193      C4198   1.404       .  A
C4193      H4200   1.085       .  S
C4194      C4195   1.416       .  A
C4195      C4196   1.404       .  A
C4195      C4202   1.509       .  S
C4196      C4197   1.401       .  A
C4196      H4201   1.084       .  S
C4197      C4198   1.413       .  A
C4198      C4199   1.505       .  S
C4199      H4203   1.111       .  S
C4199      H4204   1.106       .  S
C4199      H4205   1.110       .  S
C4202      H4206   1.109       .  S
C4202      H4207   1.110       .  S
C4202      H4208   1.111       .  S
C4209      C4210   1.404       .  A
C4209      C4214   1.399       .  A
C4209      H4216   1.085       .  S
C4210      C4211   1.414       .  A
C4211      C4212   1.415       .  A
C4211      C4218   1.505       .  S
C4212      C4213   1.409       .  A
C4212      H4217   1.084       .  S
C4213      C4214   1.411       .  A
C4214      C4215   1.507       .  S
C4215      H4219   1.111       .  S
C4215      H4220   1.108       .  S
C4215      H4221   1.110       .  S
C4218      H4222   1.110       .  S
C4218      H4223   1.110       .  S
C4218      H4224   1.111       .  S
C4225      C4226   1.401       .  A
C4225      C4230   1.402       .  A
C4225      H4232   1.085       .  S
C4226      C4227   1.410       .  A
C4227      C4228   1.409       .  A
C4227      C4234   1.506       .  S
C4228      C4229   1.413       .  A
C4228      H4233   1.084       .  S
C4229      C4230   1.420       .  A
C4230      C4231   1.509       .  S
C4231      H4235   1.111       .  S
C4231      H4236   1.108       .  S
C4231      H4237   1.110       .  S
C4234      H4238   1.108       .  S
C4234      H4239   1.110       .  S
C4234      H4240   1.110       .  S
C4241      C4242   1.404       .  A
C4241      C4246   1.393       .  A
C4241      H4248   1.080       .  S
C4242      C4243   1.417       .  A
C4243      C4244   1.409       .  A
C4243      C4250   1.507       .  S
C4244      C4245   1.403       .  A
C4244      H4249   1.084       .  S
C4245      C4246   1.405       .  A
C4246      C4247   1.506       .  S
C4247      H4251   1.111       .  S
C4247      H4252   1.107       .  S
C4247      H4253   1.110       .  S
C4250      H4254   1.110       .  S
C4250      H4255   1.110       .  S
C4250      H4256   1.111       .  S
C4257      C4258   1.406       .  A
C4257      C4262   1.397       .  A
C4257      H4264   1.084       .  S
C4258      C4259   1.417       .  A
C4259      C4260   1.409       .  A
C4259      C4266   1.504       .  S
C4260      C4261   1.404       .  A
C4260      H4265   1.084       .  S
C4261      C4262   1.415       .  A
C4262      C4263   1.511       .  S
C4263      H4267   1.111       .  S
C4263      H4268   1.108       .  S
C4263      H4269   1.111       .  S
C4266      H4270   1.108       .  S
C4266      H4271   1.110       .  S
C4266      H4272   1.111       .  S
C4273      C4274   1.403       .  A
C4273      C4278   1.404       .  A
C4273      H4280   1.085       .  S
C4275      C4276   1.412       .  A
C4275      C4282   1.505       .  S
C4276      H4281   1.083   1_455  S
C4277      C4278   1.423   1_655  A
C4278      C4279   1.510   1_455  S
C4279      H4283   1.111       .  S
C4279      H4284   1.109       .  S
C4279      H4285   1.110       .  S
C4282      H4286   1.111       .  S
C4282      H4287   1.110       .  S
C4282      H4288   1.111       .  S
C4289      C4290   1.401       .  A
C4289      C4294   1.399       .  A
C4289      H4296   1.085       .  S
C4290      C4291   1.414       .  A
C4291      C4292   1.415       .  A
C4291      C4298   1.505       .  S
C4292      C4293   1.411       .  A
C4292      H4297   1.083       .  S
C4293      C4294   1.425       .  A
C4294      C4295   1.513       .  S
C4295      H4299   1.111       .  S
C4295      H4300   1.110       .  S
C4295      H4301   1.110       .  S
C4298      H4302   1.110       .  S
C4298      H4303   1.111       .  S
C4298      H4304   1.111       .  S
C4305      C4306   1.404       .  A
C4305      C4310   1.403       .  A
C4305      H4312   1.085       .  S
C4306      C4307   1.415       .  A
C4307      C4308   1.405       .  A
C4307      C4314   1.505       .  S
C4308      C4309   1.402       .  A
C4308      H4313   1.082       .  S
C4309      C4310   1.416       .  A
C4310      C4311   1.508       .  S
C4311      H4315   1.110       .  S
C4311      H4316   1.107       .  S
C4311      H4317   1.108       .  S
C4314      H4318   1.110       .  S
C4314      H4319   1.108       .  S
C4314      H4320   1.111       .  S
C4321      C4322   1.398       .  A
C4321      C4326   1.400       .  A
C4321      H4328   1.085       .  S
C4322      C4323   1.412       .  A
C4323      C4324   1.410       .  A
C4323      C4330   1.507       .  S
C4324      C4325   1.407       .  A
C4324      H4329   1.084       .  S
C4325      C4326   1.416       .  A
C4326      C4327   1.501       .  S
C4327      H4331   1.111       .  S
C4327      H4332   1.103       .  S
C4327      H4333   1.109       .  S
C4330      H4334   1.109       .  S
C4330      H4335   1.110       .  S
C4330      H4336   1.111       .  S
C4337      C4338   1.407       .  A
C4337      C4342   1.407       .  A
C4337      H4344   1.084       .  S
C4338      C4339   1.428       .  A
C4339      C4340   1.411       .  A
C4339      C4346   1.509       .  S
C4340      C4341   1.400       .  A
C4340      H4345   1.084       .  S
C4341      C4342   1.416       .  A
C4342      C4343   1.509       .  S
C4343      H4347   1.111       .  S
C4343      H4348   1.109       .  S
C4343      H4349   1.110       .  S
C4346      H4350   1.110       .  S
C4346      H4351   1.110       .  S
C4346      H4352   1.111       .  S
C4353      C4354   1.401       .  A
C4353      C4358   1.402   1_545  A
C4353      H4360   1.085   1_545  S
C4354      C4355   1.412       .  A
C4355      C4356   1.406       .  A
C4355      C4362   1.508       .  S
C4356      C4357   1.409   1_545  A
C4356      H4361   1.084       .  S
C4357      C4358   1.421       .  A
C4358      C4359   1.508       .  S
C4359      H4363   1.111       .  S
C4359      H4364   1.105       .  S
C4359      H4365   1.108       .  S
C4362      H4366   1.111       .  S
C4362      H4367   1.109       .  S
C4362      H4368   1.111       .  S
C4369      C4370   1.405       .  A
C4369      C4374   1.412       .  A
C4369      H4376   1.084       .  S
C4370      C4371   1.412       .  A
C4371      C4372   1.402       .  A
C4371      C4378   1.504       .  S
C4372      C4373   1.403       .  A
C4372      H4377   1.084       .  S
C4373      C4374   1.416       .  A
C4374      C4375   1.506       .  S
C4375      H4379   1.111       .  S
C4375      H4380   1.111       .  S
C4375      H4381   1.110       .  S
C4378      H4382   1.107       .  S
C4378      H4383   1.109       .  S
C4378      H4384   1.111       .  S
C4385      C4386   1.406       .  A
C4385      C4390   1.402   1_545  A
C4385      H4392   1.084       .  S
C4386      C4387   1.427   1_545  A
C4387      C4388   1.409       .  A
C4387      C4394   1.508       .  S
C4388      C4389   1.398       .  A
C4388      H4393   1.084       .  S
C4389      C4390   1.413       .  A
C4390      C4391   1.507       .  S
C4391      H4395   1.111       .  S
C4391      H4396   1.109       .  S
C4391      H4397   1.110       .  S
C4394      H4398   1.110   1_565  S
C4394      H4399   1.110   1_565  S
C4394      H4400   1.111       .  S
C4401      C4402   1.406       .  A
C4401      C4406   1.402       .  A
C4401      H4408   1.085       .  S
C4402      C4403   1.417       .  A
C4403      C4404   1.411       .  A
C4403      C4410   1.506       .  S
C4404      C4405   1.403       .  A
C4404      H4409   1.078       .  S
C4405      C4406   1.413       .  A
C4406      C4407   1.506       .  S
C4407      H4411   1.111       .  S
C4407      H4412   1.110       .  S
C4407      H4413   1.106       .  S
C4410      H4414   1.110       .  S
C4410      H4415   1.111       .  S
C4410      H4416   1.111       .  S
C4417      C4418   1.404       .  A
C4417      C4422   1.409       .  A
C4417      H4424   1.084       .  S
C4418      C4419   1.417       .  A
C4419      C4420   1.404       .  A
C4419      C4426   1.509       .  S
C4420      C4421   1.406       .  A
C4420      H4425   1.084       .  S
C4421      C4422   1.421       .  A
C4422      C4423   1.508       .  S
C4423      H4427   1.111       .  S
C4423      H4428   1.110       .  S
C4423      H4429   1.109       .  S
C4426      H4430   1.110       .  S
C4426      H4431   1.109       .  S
C4426      H4432   1.111       .  S
C4433      C4434   1.403       .  A
C4433      H4440   1.084       .  S
C4434      C4435   1.418       .  A
C4435      C4436   1.401   1_556  A
C4435      C4442   1.505       .  S
C4437      C4438   1.420       .  A
C4438      C4439   1.507       .  S
C4439      H4443   1.111       .  S
C4439      H4444   1.109       .  S
C4439      H4445   1.110       .  S
C4442      H4446   1.109       .  S
C4442      H4447   1.110       .  S
C4442      H4448   1.111       .  S
C4449      C4450   1.404       .  A
C4449      C4454   1.413       .  A
C4449      H4456   1.081       .  S
C4450      C4451   1.411       .  A
C4451      C4452   1.400       .  A
C4451      C4458   1.508       .  S
C4452      C4453   1.407       .  A
C4452      H4457   1.084       .  S
C4453      C4454   1.418       .  A
C4454      C4455   1.506   1_556  S
C4455      H4459   1.111       .  S
C4455      H4460   1.111       .  S
C4458      H4462   1.107       .  S
C4458      H4463   1.110       .  S
C4458      H4464   1.110       .  S
C4465      C4466   1.405       .  A
C4465      C4470   1.411       .  A
C4465      H4472   1.084       .  S
C4466      C4467   1.416       .  A
C4467      C4468   1.397       .  A
C4467      C4474   1.506       .  S
C4468      C4469   1.398       .  A
C4468      H4473   1.084       .  S
C4469      C4470   1.415       .  A
C4470      C4471   1.505       .  S
C4471      H4475   1.111       .  S
C4471      H4476   1.110       .  S
C4471      H4477   1.110       .  S
C4474      H4478   1.107       .  S
C4474      H4479   1.108       .  S
C4474      H4480   1.111       .  S
C4481      C4482   1.400       .  A
C4481      C4486   1.405       .  A
C4481      H4488   1.081       .  S
C4482      C4483   1.414       .  A
C4483      C4484   1.408       .  A
C4483      C4490   1.507       .  S
C4484      C4485   1.404       .  A
C4484      H4489   1.084       .  S
C4485      C4486   1.415       .  A
C4486      C4487   1.506       .  S
C4487      H4491   1.111       .  S
C4487      H4492   1.110       .  S
C4487      H4493   1.107       .  S
C4490      H4494   1.110       .  S
C4490      H4495   1.110       .  S
C4490      H4496   1.111       .  S
C4497      C4498   1.404       .  A
C4497      C4502   1.407   1_565  A
C4497      H4504   1.084       .  S
C4498      C4499   1.411       .  A
C4499      C4500   1.406   1_565  A
C4499      C4506   1.508       .  S
C4500      C4501   1.407       .  A
C4500      H4505   1.084       .  S
C4501      C4502   1.415       .  A
C4502      C4503   1.507       .  S
C4503      H4507   1.111       .  S
C4503      H4508   1.109       .  S
C4503      H4509   1.110       .  S
C4506      H4510   1.110       .  S
C4506      H4511   1.111       .  S
C4506      H4512   1.111       .  S
C4513      C4518   1.412       .  A
C4513      H4520   1.084       .  S
C4514      C4515   1.409       .  A
C4515      C4522   1.509       .  S
C4516      C4517   1.408       .  A
C4516      H4521   1.084       .  S
C4517      C4518   1.422       .  A
C4518      C4519   1.506       .  S
C4519      H4523   1.110       .  S
C4519      H4524   1.111       .  S
C4519      H4525   1.110       .  S
C4522      H4526   1.104       .  S
C4522      H4527   1.106       .  S
C4522      H4528   1.111       .  S
C4529      C4530   1.408       .  A
C4529      C4534   1.408       .  A
C4529      H4536   1.084       .  S
C4530      C4531   1.418       .  A
C4531      C4532   1.399       .  A
C4531      C4538   1.510       .  S
C4532      C4533   1.400       .  A
C4532      H4537   1.085       .  S
C4533      C4534   1.410       .  A
C4534      C4535   1.506       .  S
C4535      H4539   1.111       .  S
C4535      H4540   1.110       .  S
C4535      H4541   1.111       .  S
C4538      H4542   1.110       .  S
C4538      H4543   1.109       .  S
C4538      H4544   1.111       .  S
C4545      C4546   1.404       .  A
C4545      C4550   1.400       .  A
C4545      H4552   1.085       .  S
C4546      C4547   1.420       .  A
C4547      C4548   1.407       .  A
C4547      C4554   1.508       .  S
C4548      C4549   1.400       .  A
C4548      H4553   1.085       .  S
C4549      C4550   1.412       .  A
C4550      C4551   1.509       .  S
C4551      H4555   1.111       .  S
C4551      H4556   1.109       .  S
C4551      H4557   1.110       .  S
C4554      H4558   1.110       .  S
C4554      H4559   1.110       .  S
C4554      H4560   1.111       .  S
C4561      C4562   1.404       .  A
C4561      C4566   1.398       .  A
C4561      H4568   1.083       .  S
C4562      C4563   1.416       .  A
C4563      C4564   1.414       .  A
C4563      C4570   1.505       .  S
C4564      C4565   1.408       .  A
C4564      H4569   1.084       .  S
C4565      C4566   1.418       .  A
C4566      C4567   1.512       .  S
C4567      H4571   1.111       .  S
C4567      H4572   1.107       .  S
C4567      H4573   1.108       .  S
C4570      H4574   1.110       .  S
C4570      H4575   1.110       .  S
C4570      H4576   1.111       .  S
C4577      C4578   1.412       .  A
C4577      C4582   1.410       .  A
C4577      H4584   1.083       .  S
C4578      C4579   1.422       .  A
C4579      C4580   1.403       .  A
C4579      C4586   1.508       .  S
C4580      C4581   1.402       .  A
C4580      H4585   1.085       .  S
C4581      C4582   1.410       .  A
C4582      C4583   1.502       .  S
C4583      H4587   1.111       .  S
C4583      H4588   1.105       .  S
C4583      H4589   1.110       .  S
C4586      H4590   1.109       .  S
C4586      H4591   1.110       .  S
C4586      H4592   1.111       .  S
C4593      C4594   1.402       .  A
C4593      C4598   1.398       .  A
C4593      H4600   1.083       .  S
C4594      C4595   1.415       .  A
C4595      C4596   1.401       .  A
C4595      C4602   1.508       .  S
C4596      C4597   1.400       .  A
C4596      H4601   1.083       .  S
C4597      C4598   1.409       .  A
C4598      C4599   1.506       .  S
C4599      H4603   1.111       .  S
C4599      H4604   1.110       .  S
C4599      H4605   1.109       .  S
C4602      H4606   1.109       .  S
C4602      H4607   1.109       .  S
C4602      H4608   1.111       .  S
C4609      C4610   1.400       .  A
C4609      C4614   1.403       .  A
C4609      H4616   1.084       .  S
C4610      C4611   1.410       .  A
C4611      C4612   1.400       .  A
C4611      C4618   1.507       .  S
C4612      C4613   1.403       .  A
C4612      H4617   1.084       .  S
C4613      C4614   1.415       .  A
C4614      C4615   1.507       .  S
C4615      H4619   1.111       .  S
C4615      H4620   1.109       .  S
C4615      H4621   1.110       .  S
C4618      H4622   1.109       .  S
C4618      H4623   1.110       .  S
C4618      H4624   1.111       .  S
C4625      C4630   1.409       .  A
C4625      H4632   1.084       .  S
C4626      C4627   1.410       .  A
C4627      C4628   1.405       .  A
C4627      C4634   1.508       .  S
C4628      C4629   1.409   1_556  A
C4628      H4633   1.082       .  S
C4630      C4631   1.508       .  S
C4631      H4635   1.111       .  S
C4631      H4636   1.107       .  S
C4631      H4637   1.110       .  S
C4634      H4638   1.110       .  S
C4634      H4639   1.110       .  S
C4634      H4640   1.111       .  S
C4641      C4642   1.401       .  A
C4641      C4646   1.409       .  A
C4641      H4648   1.084       .  S
C4642      C4643   1.416       .  A
C4643      C4644   1.404       .  A
C4643      C4650   1.509       .  S
C4644      C4645   1.404       .  A
C4644      H4649   1.084       .  S
C4645      C4646   1.421       .  A
C4646      C4647   1.507   1_556  S
C4647      H4651   1.111       .  S
C4647      H4652   1.111       .  S
C4647      H4653   1.110       .  S
C4650      H4654   1.108       .  S
C4650      H4655   1.111       .  S
C4650      H4656   1.111       .  S
C4657      C4662   1.403       .  A
C4657      H4664   1.085       .  S
C4658      C4659   1.409       .  A
C4659      C4660   1.410       .  A
C4659      C4666   1.504       .  S
C4660      C4661   1.408       .  A
C4660      H4665   1.084       .  S
C4662      C4663   1.510       .  S
C4663      H4667   1.111       .  S
C4663      H4668   1.109       .  S
C4663      H4669   1.110       .  S
C4666      H4670   1.109       .  S
C4666      H4671   1.110       .  S
C4666      H4672   1.111       .  S
C4673      C4674   1.400       .  A
C4673      C4678   1.408       .  A
C4673      H4680   1.085       .  S
C4674      C4675   1.412       .  A
C4675      C4676   1.400       .  A
C4675      C4682   1.509       .  S
C4676      C4677   1.407       .  A
C4676      H4681   1.082       .  S
C4677      C4678   1.425       .  A
C4678      C4679   1.508       .  S
C4679      H4683   1.111       .  S
C4679      H4684   1.110       .  S
C4679      H4685   1.110       .  S
C4682      H4686   1.109       .  S
C4682      H4687   1.109       .  S
C4682      H4688   1.111       .  S
C4689      C4690   1.404       .  A
C4689      C4694   1.399       .  A
C4689      H4696   1.084       .  S
C4690      C4691   1.419       .  A
C4691      C4692   1.413       .  A
C4691      C4698   1.506       .  S
C4692      C4693   1.404       .  A
C4692      H4697   1.084       .  S
C4693      C4694   1.413       .  A
C4694      C4695   1.508       .  S
C4695      H4699   1.111       .  S
C4695      H4700   1.111       .  S
C4695      H4701   1.109       .  S
C4698      H4702   1.110       .  S
C4698      H4703   1.110       .  S
C4698      H4704   1.111       .  S
C4705      C4706   1.411       .  A
C4705      C4710   1.411       .  A
C4705      H4712   1.083       .  S
C4706      C4707   1.421       .  A
C4707      C4708   1.398       .  A
C4707      C4714   1.510       .  S
C4708      C4709   1.399       .  A
C4708      H4713   1.085       .  S
C4709      C4710   1.409       .  A
C4710      C4711   1.504       .  S
C4711      H4715   1.111       .  S
C4711      H4716   1.110       .  S
C4711      H4717   1.108       .  S
C4714      H4718   1.107       .  S
C4714      H4719   1.109       .  S
C4714      H4720   1.110       .  S
C4721      C4722   1.404       .  A
C4721      C4726   1.387       .  A
C4721      H4728   1.083       .  S
C4722      C4723   1.412       .  A
C4723      C4724   1.411       .  A
C4723      C4730   1.505       .  S
C4724      C4725   1.410       .  A
C4724      H4729   1.084       .  S
C4725      C4726   1.413       .  A
C4726      C4727   1.512       .  S
C4727      H4731   1.111       .  S
C4727      H4732   1.102       .  S
C4727      H4733   1.111       .  S
C4730      H4734   1.111       .  S
C4730      H4735   1.110       .  S
C4730      H4736   1.111       .  S
C4737      C4738   1.408       .  A
C4737      H4744   1.084       .  S
C4738      C4739   1.417       .  A
C4739      C4746   1.509       .  S
C4740      C4741   1.402       .  A
C4740      H4745   1.084       .  S
C4741      C4742   1.417       .  A
C4742      C4743   1.506       .  S
C4743      H4747   1.111       .  S
C4743      H4748   1.111       .  S
C4743      H4749   1.110       .  S
C4746      H4750   1.109       .  S
C4746      H4751   1.101       .  S
C4746      H4752   1.111       .  S
C4753      C4754   1.408       .  A
C4753      C4758   1.409       .  A
C4753      H4760   1.084       .  S
C4754      C4755   1.429       .  A
C4755      C4756   1.400       .  A
C4755      C4762   1.513       .  S
C4756      C4757   1.398       .  A
C4756      H4761   1.085       .  S
C4757      C4758   1.416       .  A
C4758      C4759   1.507       .  S
C4759      H4763   1.111       .  S
C4759      H4764   1.111       .  S
C4759      H4765   1.109       .  S
C4762      H4766   1.110       .  S
C4762      H4767   1.110       .  S
C4762      H4768   1.111       .  S
C4769      C4770   1.398       .  A
C4769      C4774   1.393       .  A
C4769      H4776   1.084       .  S
C4770      C4771   1.415       .  A
C4771      C4772   1.413       .  A
C4771      C4778   1.505       .  S
C4772      C4773   1.406       .  A
C4772      H4777   1.084       .  S
C4773      C4774   1.421       .  A
C4774      C4775   1.512       .  S
C4775      H4779   1.111       .  S
C4775      H4780   1.109       .  S
C4775      H4781   1.107       .  S
C4778      H4782   1.110       .  S
C4778      H4783   1.110       .  S
C4778      H4784   1.111       .  S
C4785      C4786   1.395       .  A
C4785      C4790   1.395       .  A
C4785      H4792   1.085       .  S
C4786      C4787   1.410       .  A
C4787      C4788   1.409       .  A
C4787      C4794   1.506       .  S
C4788      C4789   1.410       .  A
C4788      H4793   1.084       .  S
C4789      C4790   1.426       .  A
C4790      C4791   1.512       .  S
C4791      H4795   1.111       .  S
C4791      H4796   1.110       .  S
C4791      H4797   1.108       .  S
C4794      H4798   1.110       .  S
C4794      H4799   1.111       .  S
C4794      H4800   1.111       .  S
C4801      C4802   1.391       .  A
C4801      H4808   1.082       .  S
C4803      C4804   1.406       .  A
C4804      C4805   1.410       .  A
C4804      H4809   1.083       .  S
C4805      C4806   1.429       .  A
C4806      C4807   1.512       .  S
C4807      H4811   1.111       .  S
C4807      H4812   1.110       .  S
C4807      H4813   1.108       .  S
C4810      H4814   1.110       .  S
C4810      H4815   1.110       .  S
C4817      C4818   1.403       .  A
C4817      C4822   1.402       .  A
C4817      H4824   1.084       .  S
C4818      C4819   1.418       .  A
C4819      C4820   1.402       .  A
C4819      C4826   1.510       .  S
C4820      C4821   1.403       .  A
C4820      H4825   1.085       .  S
C4821      C4822   1.413       .  A
C4822      C4823   1.505       .  S
C4823      H4827   1.111       .  S
C4823      H4829   1.110       .  S
C4826      H4830   1.108       .  S
C4826      H4831   1.111       .  S
C4826      H4832   1.111       .  S
C4833      C4834   1.409       .  A
C4833      C4838   1.413       .  A
C4833      H4840   1.084       .  S
C4834      C4835   1.421       .  A
C4835      C4836   1.400       .  A
C4835      C4842   1.511       .  S
C4836      C4837   1.400       .  A
C4836      H4841   1.085       .  S
C4837      C4838   1.414       .  A
C4838      C4839   1.505       .  S
C4839      H4843   1.111       .  S
C4839      H4844   1.110       .  S
C4839      H4845   1.110       .  S
C4842      H4846   1.110       .  S
C4842      H4847   1.109       .  S
C4842      H4848   1.111       .  S
C4849      C4850   1.404       .  A
C4849      C4854   1.407       .  A
C4849      H4856   1.082       .  S
C4850      C4851   1.408       .  A
C4851      C4852   1.408       .  A
C4851      C4858   1.507       .  S
C4852      C4853   1.413       .  A
C4852      H4857   1.084       .  S
C4853      C4854   1.419       .  A
C4854      C4855   1.509       .  S
C4855      H4859   1.111       .  S
C4855      H4860   1.109       .  S
C4855      H4861   1.111       .  S
C4858      H4862   1.111       .  S
C4858      H4863   1.110       .  S
C4858      H4864   1.111       .  S
C4865      C4866   1.403       .  A
C4865      C4870   1.398       .  A
C4865      H4872   1.082       .  S
C4866      C4867   1.417       .  A
C4867      C4868   1.410       .  A
C4867      C4874   1.507       .  S
C4868      C4869   1.406       .  A
C4868      H4873   1.085       .  S
C4869      C4870   1.410       .  A
C4870      C4871   1.507       .  S
C4871      H4875   1.111       .  S
C4871      H4876   1.107       .  S
C4871      H4877   1.109       .  S
C4874      H4878   1.110       .  S
C4874      H4879   1.106       .  S
C4874      H4880   1.111       .  S
C4881      C4882   1.403       .  A
C4881      C4886   1.401       .  A
C4881      H4888   1.084       .  S
C4882      C4883   1.418       .  A
C4883      C4884   1.404       .  A
C4883      C4890   1.508       .  S
C4884      C4885   1.400       .  A
C4884      H4889   1.085       .  S
C4885      C4886   1.412       .  A
C4886      C4887   1.506       .  S
C4887      H4891   1.111       .  S
C4887      H4892   1.110       .  S
C4887      H4893   1.109       .  S
C4890      H4894   1.110       .  S
C4890      H4895   1.109       .  S
C4890      H4896   1.111       .  S
C4897      C4898   1.400       .  A
C4897      C4902   1.402       .  A
C4897      H4904   1.084       .  S
C4898      C4899   1.413       .  A
C4899      C4900   1.404       .  A
C4899      C4906   1.506       .  S
C4900      C4901   1.404       .  A
C4900      H4905   1.084       .  S
C4901      C4902   1.416       .  A
C4902      C4903   1.507       .  S
C4903      H4907   1.111       .  S
C4903      H4908   1.109       .  S
C4903      H4909   1.108       .  S
C4906      H4910   1.110       .  S
C4906      H4911   1.110       .  S
C4906      H4912   1.111       .  S
C4913      C4914   1.404       .  A
C4913      C4918   1.400       .  A
C4913      H4920   1.085       .  S
C4914      C4915   1.419       .  A
C4915      C4916   1.408       .  A
C4915      C4922   1.507       .  S
C4916      C4917   1.401       .  A
C4916      H4921   1.084       .  S
C4917      C4918   1.412       .  A
C4918      C4919   1.509       .  S
C4919      H4923   1.111       .  S
C4919      H4924   1.110       .  S
C4919      H4925   1.109       .  S
C4922      H4926   1.110       .  S
C4922      H4927   1.111       .  S
C4922      H4928   1.111       .  S
C4929      C4930   1.408       .  A
C4929      C4934   1.405       .  A
C4929      H4936   1.084       .  S
C4930      C4931   1.428       .  A
C4931      C4932   1.408       .  A
C4931      C4938   1.508       .  S
C4932      C4933   1.398       .  A
C4932      H4937   1.085       .  S
C4933      C4934   1.414       .  A
C4934      C4935   1.509       .  S
C4935      H4939   1.111       .  S
C4935      H4940   1.110       .  S
C4935      H4941   1.109       .  S
C4938      H4942   1.111       .  S
C4938      H4943   1.110       .  S
C4938      H4944   1.110       .  S
C4945      C4946   1.405   1_455  A
C4945      C4950   1.403       .  A
C4945      H4952   1.084       .  S
C4946      C4947   1.415   1_655  A
C4947      C4948   1.412       .  A
C4947      C4954   1.507   1_455  S
C4948      C4949   1.408       .  A
C4948      H4953   1.083       .  S
C4949      C4950   1.416       .  A
C4950      C4951   1.507       .  S
C4951      H4955   1.111       .  S
C4951      H4956   1.107       .  S
C4951      H4957   1.109       .  S
C4954      H4958   1.111       .  S
C4954      H4959   1.109       .  S
C4954      H4960   1.111       .  S
C4961      C4962   1.411       .  A
C4961      C4966   1.412       .  A
C4961      H4968   1.084       .  S
C4962      C4963   1.418       .  A
C4963      C4964   1.405       .  A
C4963      C4970   1.508       .  S
C4964      C4965   1.404       .  A
C4964      H4969   1.085       .  S
C4965      C4966   1.413       .  A
C4966      C4967   1.507       .  S
C4967      H4971   1.111       .  S
C4967      H4972   1.110       .  S
C4967      H4973   1.111       .  S
C4970      H4974   1.110       .  S
C4970      H4975   1.109       .  S
C4970      H4976   1.111       .  S
C4977      C4978   1.410       .  A
C4977      C4982   1.417       .  A
C4977      H4984   1.084       .  S
C4978      C4979   1.420       .  A
C4979      C4980   1.393       .  A
C4979      C4986   1.512       .  S
C4980      C4981   1.403       .  A
C4980      H4985   1.084       .  S
C4981      C4982   1.418       .  A
C4982      C4983   1.505       .  S
C4983      H4987   1.111       .  S
C4983      H4988   1.107       .  S
C4983      H4989   1.110       .  S
C4986      H4990   1.110       .  S
C4986      H4991   1.100       .  S
C4986      H4992   1.111       .  S
C4993      C4994   1.403       .  A
C4993      C4998   1.404       .  A
C4993      H5000   1.085       .  S
C4994      C4995   1.411       .  A
C4995      C4996   1.405       .  A
C4995      C5002   1.506       .  S
C4996      C4997   1.403       .  A
C4996      H5001   1.084       .  S
C4997      C4998   1.411       .  A
C4998      C4999   1.505       .  S
C4999      H5003   1.111       .  S
C4999      H5004   1.107       .  S
C4999      H5005   1.110       .  S
C5002      H5006   1.109       .  S
C5002      H5007   1.110       .  S
C5002      H5008   1.111       .  S
C5009      C5010   1.404       .  A
C5009      C5014   1.408       .  A
C5009      H5016   1.084       .  S
C5010      C5011   1.419       .  A
C5011      C5012   1.401       .  A
C5011      C5018   1.507       .  S
C5012      C5013   1.398       .  A
C5012      H5017   1.085       .  S
C5013      C5014   1.411       .  A
C5014      C5015   1.503       .  S
C5015      H5019   1.111       .  S
C5015      H5020   1.110       .  S
C5015      H5021   1.110       .  S
C5018      H5022   1.108       .  S
C5018      H5023   1.104       .  S
C5018      H5024   1.111       .  S
C5025      C5026   1.399       .  A
C5025      C5030   1.407       .  A
C5025      H5032   1.083       .  S
C5026      C5027   1.407       .  A
C5027      C5028   1.406       .  A
C5027      C5034   1.506       .  S
C5028      C5029   1.413       .  A
C5028      H5033   1.084       .  S
C5029      C5030   1.423       .  A
C5030      C5031   1.507       .  S
C5031      H5035   1.111       .  S
C5031      H5036   1.109       .  S
C5031      H5037   1.110       .  S
C5034      H5038   1.110       .  S
C5034      H5039   1.110       .  S
C5034      H5040   1.111       .  S
