geometry optimzed in LAMMPS
_audit_creation_date              2020-12-01 
_audit_creation_method            'lammps2cif' 
_symmetry_space_group_name_H-M    'P1' 
_symmetry_Int_Tables_number       1 
_symmetry_cell_setting            triclinic 
loop_ 
_symmetry_equiv_pos_as_xyz 
  x,y,z 
_cell_length_a                    53.95235392 
_cell_length_b                    54.49273938776161 
_cell_length_c                    30.077627580402343 
_cell_angle_alpha                 90.0275973250388 
_cell_angle_beta                  89.93214614372921 
_cell_angle_gamma                 90.33878109060383 
loop_ 
_atom_site_label 
_atom_site_type_symbol 
_atom_site_fract_x 
_atom_site_fract_y 
_atom_site_fract_z 
_atom_site_charge 
Fe1        Fe  0.15568780  0.34193762  0.83189631     1.65800
Fe2        Fe  0.10142255  0.36258292  0.87554456     1.73200
Fe3        Fe  0.10181812  0.30895801  0.81619884     1.54400
O4          O  0.11675680  0.31501969  0.75361492    -0.81600
O5          O  0.08109323  0.33656834  0.90975267    -0.80000
O6          O  0.15342078  0.33302638  0.76548882    -0.84200
O7          O  0.16297557  0.30667981  0.84979744    -0.79000
O8          O  0.07112641  0.32924410  0.79611862    -0.80800
O9          O  0.12652748  0.36195031  0.92692630    -0.83500
C10         C  0.15170720  0.28632955  0.84825827     0.97200
C11         C  0.13705494  0.32417995  0.73974046     1.04700
O12         O  0.11960354  0.33779502  0.84118328    -1.12500
O13         O  0.11913583  0.39212730  0.84574026    -0.74900
O14         O  0.15305575  0.37806767  0.81318272    -0.78400
O15         O  0.12963267  0.28424760  0.83383232    -0.79100
C16         C  0.13838710  0.39539544  0.82209023     0.96100
O17         O  0.16266352  0.35140466  0.89717531    -0.77100
O18         O  0.07403148  0.36581779  0.82863619    -0.82300
C19         C  0.07648363  0.31372373  0.90730524     0.98800
C20         C  0.06313223  0.35084325  0.80285212     1.04700
O21         O  0.08447594  0.30040165  0.87580235    -0.77900
C22         C  0.14960923  0.35804996  0.93003653     1.03000
Fe23       Fe  0.34134503  0.16121843  0.84460788     1.65800
Fe24       Fe  0.35702371  0.10670628  0.89075786     1.73200
Fe25       Fe  0.30380151  0.11110442  0.82964540     1.54400
O26         O  0.28098858  0.13878871  0.85284617    -0.81600
O27         O  0.35393084  0.07598411  0.85107851    -0.80000
O28         O  0.30510640  0.17205833  0.85211004    -0.84200
O29         O  0.33661658  0.15755502  0.77806298    -0.79000
O30         O  0.29567296  0.09184715  0.88710252    -0.80800
O31         O  0.38750384  0.11696571  0.85369008    -0.83500
C32         C  0.32183463  0.14541419  0.75374746     0.97200
C33         C  0.28410061  0.16180564  0.85651149     1.04700
O34         O  0.33402036  0.12630074  0.85484336    -1.12500
O35         O  0.36359691  0.13432871  0.93616790    -0.74900
O36         O  0.34608333  0.16840976  0.91069599    -0.78400
O37         O  0.30791137  0.12858640  0.76903259    -0.79100
C38         C  0.35658904  0.15631854  0.94102379     0.96100
O39         O  0.37899279  0.15546489  0.83463189    -0.77100
O40         O  0.32876795  0.09469686  0.93118181    -0.82300
C41         C  0.34121018  0.06908508  0.81786975     0.98800
C42         C  0.30648225  0.08829287  0.92400116     1.04700
O43         O  0.32301523  0.08142083  0.80334397    -0.77900
C44         C  0.39370872  0.13737167  0.83660420     1.03000
Fe45       Fe  0.15250335  0.69234119  0.18635227     1.65800
Fe46       Fe  0.09565549  0.67382831  0.15124129     1.73200
Fe47       Fe  0.10160324  0.72665615  0.21006968     1.54400
O48         O  0.11691559  0.71799665  0.27066123    -0.81600
O49         O  0.07323676  0.70080379  0.12479402    -0.80000
O50         O  0.15419258  0.70418655  0.25146382    -0.84200
O51         O  0.16103471  0.72723463  0.16395138    -0.79000
O52         O  0.06918651  0.70818838  0.22917060    -0.80800
O53         O  0.11715157  0.67535250  0.09486043    -0.83500
C54         C  0.15272534  0.74769750  0.17737638     0.97200
C55         C  0.13877084  0.71144526  0.28053893     1.04700
O56         O  0.11665817  0.69768602  0.18229413    -1.12500
O57         O  0.11467980  0.64340597  0.17381750    -0.74900
O58         O  0.14797251  0.65689939  0.20989265    -0.78400
O59         O  0.13167123  0.74958539  0.19608413    -0.79100
C60         C  0.13331510  0.63969638  0.19857974     0.96100
O61         O  0.15541644  0.67965577  0.12174432    -0.77100
O62         O  0.07233511  0.66988264  0.20466403    -0.82300
C63         C  0.07181274  0.72407775  0.12557419     0.98800
C64         C  0.06130670  0.68615613  0.22722199     1.04700
O65         O  0.08490548  0.73734236  0.15130378    -0.77900
C66         C  0.14052374  0.67508694  0.09011301     1.03000
Fe67       Fe  0.34413634  0.87789723  0.20120325     1.65800
Fe68       Fe  0.36204962  0.93298521  0.15984487     1.73200
Fe69       Fe  0.30731231  0.92803894  0.21485380     1.54400
O70         O  0.28463265  0.89739583  0.20163459    -0.81600
O71         O  0.36512597  0.95739669  0.21197975    -0.80000
O72         O  0.30976067  0.86793084  0.17879961    -0.84200
O73         O  0.33165931  0.87893154  0.26668348    -0.79000
O74         O  0.29811603  0.94257738  0.15391541    -0.80800
O75         O  0.39275739  0.91454003  0.18330287    -0.83500
C76         C  0.32194347  0.89504632  0.29184512     0.97200
C77         C  0.28823778  0.87576013  0.18688112     1.04700
O78         O  0.33780334  0.91288922  0.19203298    -1.12500
O79         O  0.36049787  0.90997455  0.10564933    -0.74900
O80         O  0.35711170  0.87283903  0.13644737    -0.78400
O81         O  0.31398172  0.91542777  0.27771158    -0.79100
C82         C  0.36041973  0.88670495  0.10279902     0.96100
O83         O  0.37956885  0.88343598  0.22474751    -0.77100
O84         O  0.33538078  0.95475973  0.13079960    -0.82300
C85         C  0.34795394  0.96835523  0.23295033     0.98800
C86         C  0.31189050  0.95568734  0.12921639     1.04700
O87         O  0.32560770  0.96062190  0.23248473    -0.77900
C88         C  0.39686780  0.89664487  0.20908242     1.03000
Fe89       Fe  0.68633294  0.16165107  0.20151948     1.65800
Fe90       Fe  0.66595466  0.10747325  0.15738129     1.73200
Fe91       Fe  0.72016457  0.10933501  0.21559262     1.54400
O92         O  0.74442131  0.13852139  0.20676268    -0.81600
O93         O  0.66368050  0.07901863  0.20222653    -0.80000
O94         O  0.72224146  0.17057393  0.18598623    -0.84200
O95         O  0.69440437  0.15800331  0.26814135    -0.79000
O96         O  0.73011626  0.09635466  0.15351800    -0.80800
O97         O  0.63584750  0.12317454  0.18932513    -0.83500
C98         C  0.70204033  0.14087019  0.29316859     0.97200
C99         C  0.74283315  0.16045950  0.19325733     1.04700
O100        O  0.69079495  0.12618469  0.19141200    -1.12500
O101        O  0.66509273  0.13317943  0.10753346    -0.74900
O102        O  0.67747873  0.16890157  0.13621920    -0.78400
O103        O  0.71143131  0.12100900  0.27895090    -0.79100
C104        C  0.66960546  0.15595606  0.10413041     0.96100
O105        O  0.64965667  0.15805425  0.21849116    -0.77100
O106        O  0.69323689  0.08953111  0.12199703    -0.82300
C107        C  0.68023505  0.06795595  0.22409908     0.98800
C108        C  0.71673814  0.08742463  0.12263554     1.04700
O109        O  0.70184039  0.07672265  0.22912705    -0.77900
C110        C  0.63247852  0.14261968  0.21181380     1.03000
Fe111      Fe  0.87183145  0.34823868  0.20359490     1.65800
Fe112      Fe  0.92766816  0.36509328  0.16000090     1.73200
Fe113      Fe  0.92327124  0.31347143  0.22527117     1.54400
O114        O  0.90726187  0.32165682  0.28601162    -0.81600
O115        O  0.94586218  0.33700726  0.12868346    -0.80000
O116        O  0.87377485  0.34403202  0.27112342    -0.84200
O117        O  0.86200386  0.31217412  0.19571440    -0.79000
O118        O  0.95374212  0.33331321  0.24575953    -0.80800
O119        O  0.90254613  0.36512356  0.10861029    -0.83500
C120        C  0.87202587  0.29152746  0.20172611     0.97200
C121        C  0.88840854  0.33378204  0.29824299     1.04700
O122        O  0.90757397  0.34216447  0.19614972    -1.12500
O123        O  0.91246571  0.39646322  0.18618568    -0.74900
O124        O  0.87595951  0.38530814  0.21397344    -0.78400
O125        O  0.89486160  0.28915251  0.21044697    -0.79100
C126        C  0.89233443  0.40135917  0.20572154     0.96100
O127        O  0.86624125  0.35331229  0.13653261    -0.77100
O128        O  0.95493730  0.36809339  0.20723620    -0.82300
C129        C  0.94977250  0.31429741  0.13438506     0.98800
C130        C  0.96325176  0.35409302  0.23719682     1.04700
O131        O  0.94151624  0.30246506  0.16773723    -0.77900
C132        C  0.87957022  0.36052935  0.10432629     1.03000
Fe133      Fe  0.87331569  0.69287621  0.83679040     1.65800
Fe134      Fe  0.92977632  0.67944544  0.87666862     1.73200
Fe135      Fe  0.92261892  0.72880446  0.80967956     1.54400
O136        O  0.90812198  0.71671522  0.75041209    -0.81600
O137        O  0.95237312  0.70808512  0.89633986    -0.80000
O138        O  0.87104067  0.70220403  0.77046909    -0.84200
O139        O  0.86360412  0.72767220  0.85549859    -0.79000
O140        O  0.95500990  0.71013264  0.79319078    -0.80800
O141        O  0.90851352  0.68484357  0.93234226    -0.83500
C142        C  0.87092139  0.74820143  0.84051216     0.97200
C143        C  0.88667854  0.70859209  0.74112225     1.04700
O144        O  0.90850521  0.70058425  0.84124567    -1.12500
O145        O  0.91089350  0.64715700  0.86212639    -0.74900
O146        O  0.88021890  0.65745494  0.81685993    -0.78400
O147        O  0.89173196  0.75089361  0.82097854    -0.79100
C148        C  0.89415910  0.64151500  0.83430104     0.96100
O149        O  0.87078827  0.68237656  0.90271855    -0.77100
O150        O  0.95202480  0.67282046  0.82304934    -0.82300
C151        C  0.95273919  0.73129944  0.89317400     0.98800
C152        C  0.96239235  0.68808264  0.79710648     1.04700
O153        O  0.93886785  0.74297533  0.86662372    -0.77900
C154        C  0.88518022  0.68254658  0.93609710     1.03000
Fe155      Fe  0.68738684  0.87757480  0.84440719     1.65800
Fe156      Fe  0.66748067  0.93105256  0.88866835     1.73200
Fe157      Fe  0.71983812  0.93019361  0.82667978     1.54400
O158        O  0.74388602  0.90062660  0.83291630    -0.81600
O159        O  0.66238833  0.95702131  0.84008621    -0.80000
O160        O  0.72276602  0.87048021  0.86547684    -0.84200
O161        O  0.69866415  0.87960044  0.77897900    -0.79000
O162        O  0.73168060  0.94334278  0.88712610    -0.80800
O163        O  0.63713058  0.91229524  0.86285002    -0.83500
C164        C  0.70304147  0.89712444  0.75222225     0.97200
C165        C  0.74294468  0.87984140  0.85201807     1.04700
O166        O  0.69157343  0.91290193  0.85357775    -1.12500
O167        O  0.66997977  0.90707470  0.94079768    -0.74900
O168        O  0.67550613  0.87078645  0.90840740    -0.78400
O169        O  0.70909765  0.91852941  0.76489236    -0.79100
C170        C  0.67089054  0.88388310  0.94221670     0.96100
O171        O  0.65143863  0.88135706  0.82252266    -0.77100
O172        O  0.69508409  0.95197386  0.91842217    -0.82300
C173        C  0.67850955  0.96989586  0.82019623     0.98800
C174        C  0.71862615  0.95376123  0.91672097     1.04700
O175        O  0.70074826  0.96270677  0.81600589    -0.77900
C176        C  0.63368394  0.89467624  0.83586946     1.03000
Fe177      Fe  0.36799048  0.19047450  0.34896912     1.65800
Fe178      Fe  0.42220271  0.17494667  0.39750629     1.73200
Fe179      Fe  0.42008527  0.22461471  0.32809992     1.54400
O180        O  0.40302368  0.21667900  0.26784027    -0.81600
O181        O  0.43598110  0.20427785  0.43311345    -0.80000
O182        O  0.37270598  0.18960157  0.28197133    -0.84200
O183        O  0.35850594  0.22699290  0.34731357    -0.79000
O184        O  0.44987359  0.20375905  0.30743514    -0.80800
O185        O  0.39356651  0.17201010  0.44263997    -0.83500
C186        C  0.36946598  0.24761336  0.34810807     0.97200
C187        C  0.38629172  0.20162164  0.25535070     1.04700
O188        O  0.40352361  0.19678390  0.35817304    -1.12500
O189        O  0.41027009  0.14337346  0.36570586    -0.74900
O190        O  0.37141097  0.15265569  0.34961277    -0.78400
O191        O  0.39280550  0.24949250  0.34487659    -0.79100
C192        C  0.38864682  0.13705189  0.35364768     0.96100
O193        O  0.36036960  0.19066556  0.41519878    -0.77100
O194        O  0.45346236  0.17444173  0.35801797    -0.82300
C195        C  0.44305428  0.22583102  0.42285266     0.98800
C196        C  0.46148148  0.18583237  0.32412404     1.04700
O197        O  0.43916137  0.23529638  0.38484554    -0.77900
C198        C  0.37149218  0.17972339  0.44624479     1.03000
Fe199      Fe  0.18760642  0.37995606  0.33435820     1.65800
Fe200      Fe  0.17092501  0.43439670  0.38033000     1.73200
Fe201      Fe  0.22164151  0.43178640  0.31266358     1.54400
O202        O  0.24587427  0.40291769  0.32472053    -0.81600
O203        O  0.16540205  0.46037797  0.33194679    -0.80000
O204        O  0.22351137  0.37154060  0.35067306    -0.84200
O205        O  0.19597555  0.38072415  0.26719949    -0.79000
O206        O  0.23420965  0.44810097  0.37058330    -0.80800
O207        O  0.13947927  0.41673180  0.35832794    -0.83500
C208        C  0.20297158  0.39705164  0.23979222     0.97200
C209        C  0.24416424  0.38148851  0.34122953     1.04700
O210        O  0.19345622  0.41536343  0.34255980    -1.12500
O211        O  0.17370288  0.41038234  0.43282848    -0.74900
O212        O  0.17789769  0.37404560  0.40012708    -0.78400
O213        O  0.21166562  0.41768671  0.25168531    -0.79100
C214        C  0.17379031  0.38711512  0.43424640     0.96100
O215        O  0.15096371  0.38468768  0.31752195    -0.77100
O216        O  0.19917571  0.45465750  0.40781117    -0.82300
C217        C  0.17956132  0.47061457  0.30384602     0.98800
C218        C  0.22232478  0.45763686  0.40258253     1.04700
O219        O  0.20134990  0.46285112  0.29614614    -0.77900
C220        C  0.13443406  0.39857996  0.33360170     1.03000
Fe221      Fe  0.83525579  0.38220472  0.70374519     1.65800
Fe222      Fe  0.85629595  0.43665809  0.66363261     1.73200
Fe223      Fe  0.80324905  0.43486577  0.72416149     1.54400
O224        O  0.77786112  0.40637366  0.71303434    -0.81600
O225        O  0.86254187  0.45986397  0.71604729    -0.80000
O226        O  0.79913141  0.37477397  0.68664220    -0.84200
O227        O  0.82659674  0.38342206  0.77071078    -0.79000
O228        O  0.79277500  0.45072801  0.66452073    -0.80800
O229        O  0.88658195  0.41637403  0.68455105    -0.83500
C230        C  0.82039515  0.40026570  0.79773745     0.97200
C231        C  0.77882684  0.38474742  0.69723497     1.04700
O232        O  0.83147968  0.41777335  0.69691924    -1.12500
O233        O  0.85205515  0.41459464  0.60888873    -0.74900
O234        O  0.84472220  0.37746206  0.63761455    -0.78400
O235        O  0.81214599  0.42093991  0.78548339    -0.79100
C236        C  0.84937072  0.39154248  0.60486362     0.96100
O237        O  0.87194109  0.38459153  0.72202775    -0.77100
O238        O  0.83011814  0.46042208  0.63772824    -0.82300
C239        C  0.84713844  0.47171939  0.73928534     0.98800
C240        C  0.80671010  0.46294587  0.63850901     1.04700
O241        O  0.82425689  0.46584765  0.74072341    -0.77900
C242        C  0.88993353  0.39763885  0.70880994     1.03000
Fe243      Fe  0.65583654  0.19398451  0.70185441     1.65800
Fe244      Fe  0.60278940  0.17252003  0.65539715     1.73200
Fe245      Fe  0.60148365  0.22433307  0.71811266     1.54400
O246        O  0.61407006  0.21558511  0.78057064    -0.81600
O247        O  0.58003399  0.19846065  0.62616552    -0.80000
O248        O  0.65310572  0.20439731  0.76770653    -0.84200
O249        O  0.66282878  0.22946342  0.68288020    -0.79000
O250        O  0.57011022  0.20279711  0.73130867    -0.80800
O251        O  0.62695752  0.17716445  0.60353524    -0.83500
C252        C  0.65240196  0.24926931  0.69436471     0.97200
C253        C  0.63556061  0.20986715  0.79398816     1.04700
O254        O  0.62009039  0.19707896  0.69152836    -1.12500
O255        O  0.62284906  0.14299088  0.67995743    -0.74900
O256        O  0.65252727  0.15832977  0.72303230    -0.78400
O257        O  0.63036055  0.24988390  0.70962198    -0.79100
C258        C  0.63991293  0.14037140  0.70864527     0.96100
O259        O  0.66340633  0.18272363  0.63724673    -0.77100
O260        O  0.57707914  0.16557006  0.70394829    -0.82300
C261        C  0.57699496  0.22157384  0.62782299     0.98800
C262        C  0.56429564  0.18023538  0.72706781     1.04700
O263        O  0.58683805  0.23490590  0.65772236    -0.77900
C264        C  0.65038262  0.17853102  0.60289212     1.03000
Fe265      Fe  0.65985516  0.84345339  0.34618086     1.65800
Fe266      Fe  0.60438944  0.86387047  0.38615399     1.73200
Fe267      Fe  0.60635055  0.81173426  0.32275264     1.54400
O268        O  0.62542160  0.81634239  0.26394871    -0.81600
O269        O  0.58533136  0.83714335  0.42055837    -0.80000
O270        O  0.65902466  0.83849037  0.27892496    -0.84200
O271        O  0.66653686  0.80672337  0.35688304    -0.79000
O272        O  0.57870030  0.83327783  0.29642330    -0.80800
O273        O  0.62959640  0.86483582  0.43732768    -0.83500
C274        C  0.65408230  0.78693941  0.35628512     0.97200
C275        C  0.64491996  0.82749687  0.25170769     1.04700
O276        O  0.62350335  0.83966894  0.35173517    -1.12500
O277        O  0.62100612  0.89354820  0.35545342    -0.74900
O278        O  0.65830847  0.88088176  0.33443911    -0.78400
O279        O  0.63139549  0.78629502  0.34548540    -0.79100
C280        C  0.64220118  0.89762304  0.33870122     0.96100
O281        O  0.66493938  0.84885162  0.41287426    -0.77100
O282        O  0.57633349  0.86606596  0.34010916    -0.82300
C283        C  0.57822725  0.81538468  0.41213514     0.98800
C284        C  0.56857060  0.85327194  0.30778707     1.04700
O285        O  0.58484865  0.80384857  0.37757402    -0.77900
C286        C  0.65181926  0.85818988  0.44325684     1.03000
Fe287      Fe  0.83322610  0.66101595  0.33479558     1.65800
Fe288      Fe  0.85362006  0.60726660  0.37903175     1.73200
Fe289      Fe  0.80237651  0.60729319  0.31264871     1.54400
O290        O  0.77637179  0.63433283  0.32359948    -0.81600
O291        O  0.86024613  0.58154591  0.33065969    -0.80000
O292        O  0.79653764  0.66726627  0.34900893    -0.84200
O293        O  0.82653028  0.65917997  0.26759829    -0.79000
O294        O  0.79072788  0.59067166  0.37088112    -0.80800
O295        O  0.88430169  0.62648549  0.35553498    -0.83500
C296        C  0.82069070  0.64247436  0.24006395     0.97200
C297        C  0.77674236  0.65581848  0.33962751     1.04700
O298        O  0.82968073  0.62523169  0.34235373    -1.12500
O299        O  0.84952796  0.63101292  0.43142597    -0.74900
O300        O  0.84096385  0.66728235  0.40087240    -0.78400
O301        O  0.81196591  0.62182548  0.25185554    -0.79100
C302        C  0.84623104  0.65397235  0.43404954     0.96100
O303        O  0.87039667  0.65920072  0.31955078    -0.77100
O304        O  0.82639208  0.58534615  0.40723713    -0.82300
C305        C  0.84607972  0.57047850  0.30372074     0.98800
C306        C  0.80330973  0.58149847  0.40230534     1.04700
O307        O  0.82400799  0.57739776  0.29673564    -0.77900
C308        C  0.88792883  0.64536879  0.33159074     1.03000
Fe309      Fe  0.36876360  0.84770417  0.69925869     1.65800
Fe310      Fe  0.42318273  0.86627234  0.65301409     1.73200
Fe311      Fe  0.42104134  0.81322321  0.71217995     1.54400
O312        O  0.41022176  0.82218613  0.77563139    -0.81600
O313        O  0.44304540  0.83899349  0.62156088    -0.80000
O314        O  0.37273885  0.83882432  0.76636937    -0.84200
O315        O  0.35901431  0.81242423  0.68243867    -0.79000
O316        O  0.45458825  0.83155893  0.72339722    -0.80800
O317        O  0.39809178  0.86465700  0.60206334    -0.83500
C318        C  0.36856170  0.79182496  0.69080896     0.97200
C319        C  0.39028880  0.83110523  0.79106961     1.04700
O320        O  0.40422636  0.84243870  0.68818847    -1.12500
O321        O  0.40619494  0.89707970  0.67920716    -0.74900
O322        O  0.37318229  0.88406375  0.71672484    -0.78400
O323        O  0.39063337  0.78970855  0.70487555    -0.79100
C324        C  0.38762216  0.90108710  0.70395966     0.96100
O325        O  0.36151756  0.85705721  0.63349248    -0.77100
O326        O  0.45009477  0.87001263  0.70062459    -0.82300
C327        C  0.44413780  0.81567822  0.62132588     0.98800
C328        C  0.46261559  0.85346157  0.71949852     1.04700
O329        O  0.43331273  0.80248295  0.65025857    -0.77900
C330        C  0.37480863  0.86194161  0.59956342     1.03000
Fe331      Fe  0.17882474  0.65798330  0.68644669     1.65800
Fe332      Fe  0.16581525  0.60344172  0.63668955     1.73200
Fe333      Fe  0.21687538  0.60902431  0.70307489     1.54400
O334        O  0.23881205  0.64062389  0.69489643    -0.81600
O335        O  0.16260042  0.57602378  0.68281254    -0.80000
O336        O  0.21381471  0.67026110  0.67160546    -0.84200
O337        O  0.18700901  0.65573088  0.75322354    -0.79000
O338        O  0.23032053  0.59614430  0.64319590    -0.80800
O339        O  0.13288083  0.61757050  0.66071522    -0.83500
C340        C  0.19537997  0.63940877  0.77917443     0.97200
C341        C  0.23515080  0.66250326  0.68158271     1.04700
O342        O  0.18723525  0.62351028  0.67528797    -1.12500
O343        O  0.16683768  0.62873905  0.58667817    -0.74900
O344        O  0.16925628  0.66480177  0.62112124    -0.78400
O345        O  0.20590045  0.62009891  0.76542569    -0.79100
C346        C  0.16633362  0.65193294  0.58631694     0.96100
O347        O  0.14290317  0.64962917  0.70301281    -0.77100
O348        O  0.19555312  0.58658704  0.60688407    -0.82300
C349        C  0.17796321  0.56615739  0.70887857     0.98800
C350        C  0.21897813  0.58643530  0.61062997     1.04700
O351        O  0.19927511  0.57552284  0.71614500    -0.77900
C352        C  0.12722609  0.63443398  0.68787049     1.03000
C353        C  0.35278899  0.76971212  0.68491795    -0.11900
C354        C  0.34942064  0.75254315  0.71953672     0.03500
C355        C  0.33198704  0.73351636  0.71493420    -0.12500
C356        C  0.31756910  0.73132264  0.67632193     0.18400
C357        C  0.32118474  0.74818106  0.64144937    -0.09500
C358        C  0.33865485  0.76717059  0.64591351    -0.02500
H359        H  0.32885704  0.72102732  0.74241279     0.04900
C360        C  0.29674622  0.71344090  0.67554283     0.20400
H361        H  0.34078074  0.78038084  0.61924959     0.10100
C362        C  0.27341809  0.72125509  0.68988714    -0.15900
C363        C  0.25326159  0.70504429  0.69154837     0.03100
C364        C  0.25623129  0.68016652  0.67893075    -0.11200
C365        C  0.27971495  0.67235885  0.66444492    -0.01200
C366        C  0.29981662  0.68886857  0.66225119    -0.06400
H367        H  0.27095813  0.74010811  0.70040894     0.06100
H368        H  0.28236680  0.65347953  0.65431517     0.09500
Br369      Br  0.30182915  0.74651288  0.58807210    -0.06100
Br370      Br  0.36583741  0.75602710  0.77580161    -0.03000
Br371      Br  0.22267807  0.71799783  0.71429845    -0.00200
Br372      Br  0.33101240  0.67741563  0.64019883    -0.04500
C373        C  0.66686715  0.76348148  0.36567834    -0.11900
C374        C  0.68950268  0.76253102  0.38932623     0.03500
C375        C  0.70340896  0.74098543  0.38901795    -0.12500
C376        C  0.69501247  0.72011166  0.36627815     0.18400
C377        C  0.67123157  0.72006371  0.34729394    -0.09500
C378        C  0.65740401  0.74167981  0.34687064    -0.02500
H379        H  0.72145371  0.74088211  0.40480254     0.04900
C380        C  0.71281437  0.70022317  0.35772609     0.20400
H381        H  0.63978583  0.74168143  0.32964994     0.10100
C382        C  0.72133096  0.68576752  0.39312415    -0.15900
C383        C  0.74143359  0.66994146  0.38720179     0.03100
C384        C  0.75327377  0.66873249  0.34559972    -0.11200
C385        C  0.74407950  0.68228213  0.30981592    -0.01200
C386        C  0.72404577  0.69803245  0.31556222    -0.06400
H387        H  0.71291964  0.68748112  0.42568932     0.06100
H388        H  0.75330167  0.68151139  0.27781469     0.09500
Br389      Br  0.65755665  0.69125104  0.31977657    -0.06100
Br390      Br  0.70265131  0.78973197  0.42270438    -0.03000
Br391      Br  0.75281791  0.65101043  0.43681546    -0.00200
Br392      Br  0.71446050  0.71798434  0.26590210    -0.04500
C393        C  0.56045941  0.80379721  0.44315603    -0.11900
C394        C  0.54037280  0.78921644  0.42792737     0.03500
C395        C  0.52086773  0.78353756  0.45688090    -0.12500
C396        C  0.52087052  0.79241972  0.50055731     0.18400
C397        C  0.54170542  0.80523877  0.51670560    -0.09500
C398        C  0.56133967  0.81066046  0.48812912    -0.02500
H399        H  0.50467087  0.77399432  0.44424121     0.04900
C400        C  0.49744958  0.79323458  0.52554888     0.20400
H401        H  0.57661409  0.82172917  0.50042452     0.10100
C402        C  0.49440351  0.77905057  0.56407793    -0.15900
C403        C  0.47555035  0.78445731  0.59461257     0.03100
C404        C  0.45948378  0.80433164  0.58627088    -0.11200
C405        C  0.46131492  0.81674824  0.54556197    -0.01200
C406        C  0.48009054  0.81151289  0.51543494    -0.06400
H407        H  0.50785556  0.76504616  0.57202851     0.06100
H408        H  0.44926300  0.83196041  0.53863198     0.09500
Br409      Br  0.54271857  0.81866500  0.57576050    -0.06100
Br410      Br  0.53627698  0.77963572  0.36684590    -0.03000
Br411      Br  0.47513925  0.76635319  0.64930892    -0.00200
Br412      Br  0.48322229  0.83231717  0.46409081    -0.04500
C413        C  0.75582394  0.36976708  0.69225740    -0.11900
C414        C  0.73687548  0.36955861  0.72487390     0.03500
C415        C  0.71783492  0.35189800  0.72288247    -0.12500
C416        C  0.71723826  0.33427882  0.68889703     0.18400
C417        C  0.73534969  0.33519674  0.65524364    -0.09500
C418        C  0.75438881  0.35274250  0.65713522    -0.02500
H419        H  0.70415207  0.35110783  0.74924242     0.04900
C420        C  0.69978659  0.31320405  0.69201532     0.20400
H421        H  0.76867338  0.35250584  0.63179077     0.10100
C422        C  0.67567858  0.31480208  0.67460435    -0.15900
C423        C  0.65957723  0.29437495  0.67536844     0.03100
C424        C  0.66775654  0.27190761  0.69326076    -0.11200
C425        C  0.69174418  0.27062652  0.71119918    -0.01200
C426        C  0.70756570  0.29098707  0.71109826    -0.06400
H427        H  0.66954274  0.33182231  0.65978339     0.06100
H428        H  0.69819666  0.25364635  0.72578698     0.09500
Br429      Br  0.73556273  0.31183224  0.60749756    -0.06100
Br430      Br  0.73742146  0.39082460  0.77578287    -0.03000
Br431      Br  0.62737870  0.29757817  0.64918563    -0.00200
Br432      Br  0.73972970  0.28757847  0.73753819    -0.04500
C433        C  0.79141224  0.56431592  0.43338325    -0.11900
C434        C  0.79484398  0.53895053  0.42780638     0.03500
C435        C  0.78927841  0.52287008  0.46256103    -0.12500
C436        C  0.77993859  0.53165083  0.50308405     0.18400
C437        C  0.77419813  0.55683115  0.50698210    -0.09500
C438        C  0.78018952  0.57303707  0.47230978    -0.02500
H439        H  0.79401019  0.50367339  0.45903303     0.04900
C440        C  0.78176242  0.51545589  0.54261516     0.20400
H441        H  0.77729023  0.59254854  0.47667517     0.10100
C442        C  0.79844741  0.52232414  0.57614695    -0.15900
C443        C  0.80549393  0.50576302  0.60902906     0.03100
C444        C  0.79600537  0.48160703  0.60875333    -0.11200
C445        C  0.77796603  0.47510840  0.57720598    -0.01200
C446        C  0.77087071  0.49183382  0.54408567    -0.06400
H447        H  0.80713368  0.54030048  0.57540376     0.06100
H448        H  0.77032150  0.45668219  0.57696670     0.09500
Br449      Br  0.75925018  0.56995660  0.55971873    -0.06100
Br450      Br  0.80906358  0.52570441  0.37451486    -0.03000
Br451      Br  0.82856281  0.51708570  0.65319126    -0.00200
Br452      Br  0.74681845  0.48151078  0.50094850    -0.04500
C453        C  0.23502179  0.47364803  0.43509144    -0.11900
C454        C  0.25224637  0.49192500  0.42210399     0.03500
C455        C  0.25836842  0.51086410  0.45175353    -0.12500
C456        C  0.24746493  0.51193213  0.49406388     0.18400
C457        C  0.23154351  0.49282408  0.50790228    -0.09500
C458        C  0.22587755  0.47373387  0.47880533    -0.02500
H459        H  0.27016078  0.52579969  0.44058793     0.04900
C460        C  0.24791203  0.53515504  0.51920865     0.20400
H461        H  0.21254238  0.45993263  0.48923980     0.10100
C462        C  0.23310781  0.55430278  0.50344660    -0.15900
C463        C  0.22559743  0.57307170  0.53185787     0.03100
C464        C  0.23299070  0.57275540  0.57681065    -0.11200
C465        C  0.25059783  0.55551679  0.59077678    -0.01200
C466        C  0.25810611  0.53669733  0.56216401    -0.06400
H467        H  0.22558561  0.55350329  0.47007945     0.06100
H468        H  0.25674064  0.55528387  0.62504910     0.09500
Br469      Br  0.21361734  0.49392247  0.56316808    -0.06100
Br470      Br  0.26507451  0.49423788  0.36269076    -0.03000
Br471      Br  0.20394031  0.59772581  0.50831804    -0.00200
Br472      Br  0.28010562  0.51205720  0.58429553    -0.04500
C473        C  0.26685390  0.36690400  0.34907961    -0.11900
C474        C  0.28688080  0.36671750  0.31868802     0.03500
C475        C  0.30578326  0.34939583  0.32343820    -0.12500
C476        C  0.30517099  0.33222286  0.35807885     0.18400
C477        C  0.28629878  0.33357032  0.39025077    -0.09500
C478        C  0.26729185  0.35069108  0.38545616    -0.02500
H479        H  0.32022641  0.34834952  0.29845985     0.04900
C480        C  0.32191078  0.31088618  0.35620840     0.20400
H481        H  0.25231291  0.35075953  0.40948469     0.10100
C482        C  0.34667730  0.31305850  0.36976368    -0.15900
C483        C  0.36270479  0.29286077  0.36770788     0.03100
C484        C  0.35386703  0.26997886  0.35156761    -0.11200
C485        C  0.32898924  0.26818529  0.33783661    -0.01200
C486        C  0.31317825  0.28828947  0.33984071    -0.06400
H487        H  0.35348693  0.33047092  0.38230876     0.06100
H488        H  0.32173717  0.25106907  0.32476182     0.09500
Br489      Br  0.28507283  0.31139472  0.43977041    -0.06100
Br490      Br  0.28816386  0.38744826  0.26712662    -0.03000
Br491      Br  0.39586610  0.29772568  0.38926649    -0.00200
Br492      Br  0.27984546  0.28415689  0.31861400    -0.04500
C493        C  0.56005945  0.23285333  0.59505866    -0.11900
C494        C  0.55801250  0.22363651  0.55134230     0.03500
C495        C  0.53864021  0.23130011  0.52410314    -0.12500
C496        C  0.52103877  0.24820704  0.53925246     0.18400
C497        C  0.52394114  0.25870556  0.58172791    -0.09500
C498        C  0.54347045  0.25113236  0.60915832    -0.02500
H499        H  0.53656948  0.22300550  0.49155862     0.04900
C500        C  0.49813755  0.25107488  0.51268048     0.20400
H501        H  0.54480169  0.25852433  0.64251084     0.10100
C502        C  0.47599205  0.24119485  0.52967474    -0.15900
C503        C  0.45624799  0.23539515  0.50141671     0.03100
C504        C  0.45866366  0.23927596  0.45521875    -0.11200
C505        C  0.47942896  0.25227025  0.43929733    -0.01200
C506        C  0.49916212  0.25806291  0.46762596    -0.06400
H507        H  0.47481178  0.23600357  0.56438035     0.06100
H508        H  0.48143558  0.25586836  0.40405275     0.09500
Br509      Br  0.50124023  0.28273664  0.60399485    -0.06100
Br510      Br  0.58074208  0.20021964  0.52683259    -0.03000
Br511      Br  0.42706748  0.22091401  0.52735646    -0.00200
Br512      Br  0.52809174  0.27336816  0.44256917    -0.04500
C513        C  0.67161655  0.99435093  0.80199390    -0.11900
C514        C  0.65053597  0.00751811  0.81681654     0.03500
C515        C  0.64591149  0.03107947  0.80031267    -0.12500
C516        C  0.66192494  0.04210054  0.76946697     0.18400
C517        C  0.68301511  0.02933395  0.75508644    -0.09500
C518        C  0.68760288  0.00567015  0.77098462    -0.02500
H519        H  0.62989557  0.04097947  0.81193156     0.04900
C520        C  0.65648228  0.06716762  0.75352336     0.20400
H521        H  0.70395852  0.99629950  0.75946614     0.10100
C522        C  0.65991379  0.08710825  0.78234261    -0.15900
C523        C  0.65458565  0.11106068  0.76864997     0.03100
C524        C  0.64555579  0.11536042  0.72517054    -0.11200
C525        C  0.64180806  0.09520147  0.69671119    -0.01200
C526        C  0.64718043  0.07131058  0.71052968    -0.06400
H527        H  0.66666284  0.08398011  0.81577512     0.06100
H528        H  0.63482748  0.09802139  0.66336073     0.09500
Br529      Br  0.70671445  0.04393399  0.71535392    -0.06100
Br530      Br  0.62787900  0.99567457  0.86143358    -0.03000
Br531      Br  0.65864241  0.13669323  0.81195819    -0.00200
Br532      Br  0.64092302  0.04480933  0.66998939    -0.04500
C533        C  0.65117629  0.82906510  0.20377532    -0.11900
C534        C  0.63675949  0.81776792  0.16995034     0.03500
C535        C  0.64144303  0.82345206  0.12542383    -0.12500
C536        C  0.66038923  0.83985277  0.11387403     0.18400
C537        C  0.67577004  0.84979318  0.14684576    -0.09500
C538        C  0.67122508  0.84427324  0.19123957    -0.02500
H539        H  0.62967431  0.81575646  0.09972118     0.04900
C540        C  0.66178718  0.84914717  0.06833018     0.20400
H541        H  0.68284087  0.85299303  0.21605456     0.10100
C542        C  0.64656349  0.86883292  0.05683931    -0.15900
C543        C  0.64886012  0.88011361  0.01550318     0.03100
C544        C  0.66674553  0.87158751  0.98501763    -0.11200
C545        C  0.68119985  0.85109516  0.99596944    -0.01200
C546        C  0.67895123  0.83995484  0.03756222    -0.06400
H547        H  0.63314472  0.87572173  0.08053567     0.06100
H548        H  0.69473767  0.84415775  0.97261684     0.09500
Br549      Br  0.70193791  0.87259351  0.13299488    -0.06100
Br550      Br  0.61001045  0.79508354  0.18093859    -0.03000
Br551      Br  0.62633609  0.90628217  0.00218682    -0.00200
Br552      Br  0.70000670  0.81281826  0.05162548    -0.04500
C553        C  0.66263853  0.86153437  0.48760661    -0.11900
C554        C  0.68744464  0.86932153  0.49362415     0.03500
C555        C  0.69626228  0.87384422  0.53646208    -0.12500
C556        C  0.68068993  0.87081959  0.57324640     0.18400
C557        C  0.65619001  0.86260695  0.56750393    -0.09500
C558        C  0.64733253  0.85800955  0.52485048    -0.02500
H559        H  0.71503445  0.88053991  0.54104235     0.04900
C560        C  0.68943439  0.87833458  0.61716137     0.20400
H561        H  0.62830857  0.85194955  0.52072789     0.10100
C562        C  0.68330806  0.90179334  0.63238963    -0.15900
C563        C  0.68841957  0.90873333  0.67601533     0.03100
C564        C  0.70034166  0.89205312  0.70464893    -0.11200
C565        C  0.70724588  0.86884462  0.68862965    -0.01200
C566        C  0.70175429  0.86186210  0.64516311    -0.06400
H567        H  0.67340769  0.91428310  0.61083224     0.06100
H568        H  0.71620163  0.85580653  0.71044985     0.09500
Br569      Br  0.63404846  0.85817213  0.61693199    -0.06100
Br570      Br  0.70943999  0.87646902  0.44498995    -0.03000
Br571      Br  0.67580733  0.93983740  0.69565190    -0.00200
Br572      Br  0.70982839  0.82923996  0.62629047    -0.04500
C573        C  0.48761865  0.85973990  0.73687584    -0.11900
C574        C  0.50292350  0.87764295  0.71619574     0.03500
C575        C  0.52654909  0.88264481  0.73314427    -0.12500
C576        C  0.53549062  0.87009281  0.77030468     0.18400
C577        C  0.52052165  0.85217641  0.79081981    -0.09500
C578        C  0.49691588  0.84695747  0.77383688    -0.02500
H579        H  0.53816391  0.89626364  0.71695763     0.04900
C580        C  0.56049427  0.87610159  0.78714882     0.20400
H581        H  0.48574700  0.83293129  0.78980349     0.10100
C582        C  0.56325353  0.89490187  0.81843808    -0.15900
C583        C  0.58667326  0.90160094  0.83457633     0.03100
C584        C  0.60813466  0.88909951  0.81936880    -0.11200
C585        C  0.60503011  0.87031648  0.78747394    -0.01200
C586        C  0.58157385  0.86390322  0.77130669    -0.06400
H587        H  0.54700073  0.90451658  0.83026789     0.06100
H588        H  0.62091587  0.86048959  0.77472671     0.09500
Br589      Br  0.53163299  0.83451123  0.84211203    -0.06100
Br590      Br  0.49379002  0.89475084  0.66284971    -0.03000
Br591      Br  0.58715525  0.92801130  0.87699660    -0.00200
Br592      Br  0.57913401  0.83851236  0.72726635    -0.04500
C593        C  0.98422470  0.67961800  0.77176080    -0.11900
C594        C  0.00448530  0.69526474  0.76185380     0.03500
C595        C  0.02614268  0.68538975  0.74394480    -0.12500
C596        C  0.02803525  0.66020748  0.73542602     0.18400
C597        C  0.00755110  0.64477478  0.74300031    -0.09500
C598        C  0.98586072  0.65452460  0.76097988    -0.02500
H599        H  0.04200510  0.69727351  0.73822732     0.04900
C600        C  0.05239624  0.65032122  0.72311105     0.20400
H601        H  0.97045757  0.64225082  0.76786672     0.10100
C602        C  0.07030877  0.64787827  0.75648100    -0.15900
C603        C  0.09462502  0.64154464  0.74585808     0.03100
C604        C  0.10119334  0.63734705  0.70114767    -0.11200
C605        C  0.08291119  0.63852894  0.66801735    -0.01200
C606        C  0.05864507  0.64528309  0.67867478    -0.06400
H607        H  0.06549152  0.65164096  0.79079360     0.06100
H608        H  0.08783501  0.63556201  0.63350099     0.09500
Br609      Br  0.00891098  0.61014748  0.73182066    -0.06100
Br610      Br  0.00506579  0.72968402  0.77571570    -0.03000
Br611      Br  0.11810900  0.63892089  0.79358630    -0.00200
Br612      Br  0.03514246  0.64923631  0.63146104    -0.04500
C613        C  0.85422241  0.76959724  0.84479170    -0.11900
C614        C  0.82810864  0.76678899  0.84391344     0.03500
C615        C  0.81296671  0.78739551  0.84626866    -0.12500
C616        C  0.82305748  0.81104358  0.84959699     0.18400
C617        C  0.84898680  0.81403177  0.85085251    -0.09500
C618        C  0.86434066  0.79340502  0.84798130    -0.02500
H619        H  0.79302233  0.78497311  0.84521273     0.04900
C620        C  0.80565802  0.83183485  0.85319029     0.20400
H621        H  0.88425524  0.79597096  0.84889196     0.10100
C622        C  0.78977542  0.83266989  0.89009501    -0.15900
C623        C  0.76995523  0.84903245  0.89161485     0.03100
C624        C  0.76584350  0.86519599  0.85574291    -0.11200
C625        C  0.78264565  0.86532840  0.81997064    -0.01200
C626        C  0.80220320  0.84859271  0.81811307    -0.06400
H627        H  0.79226509  0.81980568  0.91716548     0.06100
H628        H  0.77960377  0.87737745  0.79188505     0.09500
Br629      Br  0.86417496  0.84567281  0.85836637    -0.06100
Br630      Br  0.81142120  0.73573060  0.83696342    -0.03000
Br631      Br  0.74919716  0.84820888  0.94348760    -0.00200
Br632      Br  0.82182593  0.84764888  0.76487861    -0.04500
C633        C  0.82543760  0.64742652  0.19260314    -0.11900
C634        C  0.83384324  0.62900951  0.16318198     0.03500
C635        C  0.84206022  0.63551403  0.12073347    -0.12500
C636        C  0.84280790  0.66014175  0.10733244     0.18400
C637        C  0.83346313  0.67837331  0.13585424    -0.09500
C638        C  0.82476885  0.67188661  0.17791271    -0.02500
H639        H  0.84892035  0.62137318  0.09864960     0.04900
C640        C  0.85405642  0.66647576  0.06409794     0.20400
H641        H  0.81840060  0.68625099  0.19999867     0.10100
C642        C  0.83962501  0.67824168  0.03194517    -0.15900
C643        C  0.84967190  0.68479634  0.99085849     0.03100
C644        C  0.87444236  0.67859004  0.98066258    -0.11200
C645        C  0.88893907  0.66703105  0.01317531    -0.01200
C646        C  0.87903296  0.66108321  0.05467306    -0.06400
H647        H  0.82046383  0.68260552  0.03908983     0.06100
H648        H  0.90799643  0.66221677  0.00612729     0.09500
Br649      Br  0.83395248  0.71261846  0.12074413    -0.06100
Br650      Br  0.83737388  0.59516259  0.17990638    -0.03000
Br651      Br  0.82890906  0.70350573  0.95179152    -0.00200
Br652      Br  0.90067647  0.64619443  0.09744520    -0.04500
C653        C  0.84924092  0.66561676  0.47762564    -0.11900
C654        C  0.86473954  0.68630861  0.48326777     0.03500
C655        C  0.86919192  0.69536524  0.52592695    -0.12500
C656        C  0.85870264  0.68385120  0.56312133     0.18400
C657        C  0.84282661  0.66353461  0.55749303    -0.09500
C658        C  0.83818622  0.65456922  0.51484821    -0.02500
H659        H  0.88177042  0.71074649  0.53033618     0.04900
C660        C  0.86644945  0.69176143  0.60763897     0.20400
H661        H  0.82643633  0.63852729  0.51079508     0.10100
C662        C  0.85007922  0.70518974  0.63424460    -0.15900
C663        C  0.85666475  0.71174816  0.67757544     0.03100
C664        C  0.88003028  0.70496114  0.69436231    -0.11200
C665        C  0.89666747  0.69227003  0.66705935    -0.01200
C666        C  0.88994840  0.68543629  0.62407617    -0.06400
H667        H  0.83206196  0.71026172  0.62144354     0.06100
H668        H  0.91450605  0.68664459  0.67992632     0.09500
Br669      Br  0.82862522  0.64639088  0.60716680    -0.06100
Br670      Br  0.88265038  0.70104099  0.43481405    -0.03000
Br671      Br  0.83346442  0.73046337  0.71190954    -0.00200
Br672      Br  0.91277746  0.66607531  0.59011279    -0.04500
C673        C  0.85574955  0.49408510  0.76326250    -0.11900
C674        C  0.88119058  0.49926086  0.77105376     0.03500
C675        C  0.88841430  0.52245914  0.78655385    -0.12500
C676        C  0.87075612  0.54048575  0.79564192     0.18400
C677        C  0.84544367  0.53473753  0.79173274    -0.09500
C678        C  0.83811726  0.51177780  0.77559267    -0.02500
H679        H  0.90793543  0.52665580  0.79060579     0.04900
C680        C  0.87888275  0.56579847  0.80550757     0.20400
H681        H  0.81852066  0.50821791  0.77097443     0.10100
C682        C  0.87816119  0.58324464  0.77131674    -0.15900
C683        C  0.88397795  0.60784485  0.77960810     0.03100
C684        C  0.89027120  0.61538129  0.82306963    -0.11200
C685        C  0.89215506  0.59761250  0.85680229    -0.01200
C686        C  0.88655272  0.57293830  0.84825711    -0.06400
H687        H  0.87287431  0.57767870  0.73804424     0.06100
H688        H  0.89727368  0.60303581  0.89022623     0.09500
Br689      Br  0.82030319  0.55801996  0.80710717    -0.06100
Br690      Br  0.90713892  0.47569213  0.76233446    -0.03000
Br691      Br  0.88430514  0.62996394  0.72985498    -0.00200
Br692      Br  0.88870455  0.54976845  0.89604477    -0.04500
C693        C  0.10822725  0.39322417  0.32363451    -0.11900
C694        C  0.08933743  0.39647265  0.35578504     0.03500
C695        C  0.06485675  0.39029694  0.34537828    -0.12500
C696        C  0.05886813  0.38078635  0.30354384     0.18400
C697        C  0.07751324  0.37789925  0.27126362    -0.09500
C698        C  0.10200402  0.38392795  0.28156606    -0.02500
H699        H  0.05049125  0.39248488  0.37024937     0.04900
C700        C  0.03308857  0.37391984  0.29371709     0.20400
H701        H  0.11621333  0.38151132  0.25648013     0.10100
C702        C  0.01594405  0.39236830  0.28425052    -0.15900
C703        C  0.99236666  0.38639437  0.26823526     0.03100
C704        C  0.98588341  0.36151110  0.26127720    -0.11200
C705        C  0.00247550  0.34311376  0.27443698    -0.01200
C706        C  0.02593289  0.34915320  0.29056976    -0.06400
H707        H  0.02123976  0.41147654  0.28785389     0.06100
H708        H  0.99771768  0.32391969  0.27009956     0.09500
Br709      Br  0.07024589  0.36619749  0.21244164    -0.06100
Br710      Br  0.09577477  0.40748785  0.41542876    -0.03000
Br711      Br  0.96995571  0.41297831  0.25716977    -0.00200
Br712      Br  0.04799241  0.32301670  0.30605131    -0.04500
C713        C  0.86811762  0.36444369  0.06001577    -0.11900
C714        C  0.84210193  0.36571372  0.05338034     0.03500
C715        C  0.83276145  0.37151677  0.01137221    -0.12500
C716        C  0.84868840  0.37598474  0.97552731     0.18400
C717        C  0.87444925  0.37428668  0.98160756    -0.09500
C718        C  0.88390152  0.36852327  0.02338800    -0.02500
H719        H  0.81290864  0.37293605  0.00672871     0.04900
C720        C  0.83828505  0.38303073  0.93217036     0.20400
H721        H  0.90383051  0.36748429  0.02714316     0.10100
C722        C  0.84332818  0.40656495  0.91563430    -0.15900
C723        C  0.83657693  0.41298015  0.87245411     0.03100
C724        C  0.82412737  0.39571707  0.84537720    -0.11200
C725        C  0.81793349  0.37260585  0.86284631    -0.01200
C726        C  0.82480973  0.36620676  0.90604191    -0.06400
H727        H  0.85363190  0.41958904  0.93573915     0.06100
H728        H  0.80843280  0.35920697  0.84229851     0.09500
Br729      Br  0.89756341  0.37945832  0.93379740    -0.06100
Br730      Br  0.81784889  0.36091396  0.09950236    -0.03000
Br731      Br  0.84767860  0.44436895  0.85093626    -0.00200
Br732      Br  0.81697497  0.33375108  0.92660090    -0.04500
C733        C  0.85291495  0.38039003  0.56061727    -0.11900
C734        C  0.84800902  0.39332475  0.52090779     0.03500
C735        C  0.85377316  0.38266870  0.48003829    -0.12500
C736        C  0.86391358  0.35908966  0.47774099     0.18400
C737        C  0.86813571  0.34585012  0.51701374    -0.09500
C738        C  0.86262323  0.35651689  0.55803788    -0.02500
H739        H  0.85026547  0.39280836  0.44972741     0.04900
C740        C  0.87014664  0.34899810  0.43378627     0.20400
H741        H  0.86645028  0.34625820  0.58806906     0.10100
C742        C  0.89510993  0.34674638  0.42153856    -0.15900
C743        C  0.90167286  0.34056326  0.37797205     0.03100
C744        C  0.88291367  0.33663220  0.34596718    -0.11200
C745        C  0.85794146  0.33786510  0.35906801    -0.01200
C746        C  0.85148523  0.34394487  0.40253477    -0.06400
H747        H  0.90953228  0.35086657  0.44549768     0.06100
H748        H  0.84331487  0.33465784  0.33506206     0.09500
Br749      Br  0.88099136  0.31310455  0.51611317    -0.06100
Br750      Br  0.83236113  0.42493663  0.51961134    -0.03000
Br751      Br  0.93638537  0.34032429  0.36364015    -0.00200
Br752      Br  0.81694530  0.34560265  0.41756913    -0.04500
C753        C  0.85485132  0.54777888  0.28145893    -0.11900
C754        C  0.88002309  0.54041176  0.28167443     0.03500
C755        C  0.88638585  0.51704428  0.26634758    -0.12500
C756        C  0.86828378  0.50099430  0.24984820     0.18400
C757        C  0.84362765  0.50878422  0.24659743    -0.09500
C758        C  0.83707980  0.53195462  0.26228426    -0.02500
H759        H  0.90552361  0.51118951  0.26789565     0.04900
C760        C  0.87520481  0.47571889  0.23837777     0.20400
H761        H  0.81775195  0.53714637  0.26090866     0.10100
C762        C  0.87291986  0.45742315  0.27087752    -0.15900
C763        C  0.87883337  0.43308656  0.26109998     0.03100
C764        C  0.88736018  0.42691913  0.21824345    -0.11200
C765        C  0.89012735  0.44538360  0.18604161    -0.01200
C766        C  0.88389641  0.46966369  0.19574928    -0.06400
H767        H  0.86641465  0.46211335  0.30388189     0.06100
H768        H  0.89646367  0.44077715  0.15289489     0.09500
Br769      Br  0.81822815  0.48805816  0.22206258    -0.06100
Br770      Br  0.90689266  0.56104581  0.30131960    -0.03000
Br771      Br  0.87595288  0.40921986  0.30785282    -0.00200
Br772      Br  0.88667427  0.49385226  0.14969026    -0.04500
C773        C  0.73062780  0.97051822  0.94838031    -0.11900
C774        C  0.72375686  0.97052426  0.99352871     0.03500
C775        C  0.72892556  0.99105756  0.01974807    -0.12500
C776        C  0.74084393  0.01164744  0.00144580     0.18400
C777        C  0.75010323  0.01056556  0.95779174    -0.09500
C778        C  0.74504036  0.98995066  0.93153987    -0.02500
H779        H  0.72207484  0.99165353  0.05366687     0.04900
C780        C  0.73939714  0.03497719  0.02599387     0.20400
H781        H  0.75049277  0.99008762  0.89680828     0.10100
C782        C  0.75424951  0.03868330  0.06356426    -0.15900
C783        C  0.74903431  0.05760911  0.09363836     0.03100
C784        C  0.72811371  0.07269287  0.08661359    -0.11200
C785        C  0.71492229  0.07032767  0.04651100    -0.01200
C786        C  0.72031634  0.05163047  0.01645531    -0.06400
H787        H  0.76905276  0.02598152  0.07077481     0.06100
H788        H  0.69918903  0.08200622  0.03987048     0.09500
Br789      Br  0.76759421  0.03773228  0.93179970    -0.06100
Br790      Br  0.70618354  0.94345117  0.01995176    -0.03000
Br791      Br  0.76980678  0.05994286  0.14527142    -0.00200
Br792      Br  0.69909919  0.04783715  0.96559481    -0.04500
C793        C  0.64837042  0.92274205  0.32273968    -0.11900
C794        C  0.63820006  0.94406264  0.34235399     0.03500
C795        C  0.64418495  0.96724791  0.32531093    -0.12500
C796        C  0.66022436  0.96984608  0.28894097     0.18400
C797        C  0.67094625  0.94876739  0.27005805    -0.09500
C798        C  0.66496587  0.92552103  0.28691775    -0.02500
H799        H  0.63622882  0.98342347  0.34052310     0.04900
C800        C  0.66554762  0.99479839  0.27176364     0.20400
H801        H  0.67317741  0.90951351  0.27158043     0.10100
C802        C  0.67947509  0.01117641  0.29783515    -0.15900
C803        C  0.68408098  0.03523701  0.28350199     0.03100
C804        C  0.67455065  0.04331109  0.24235243    -0.11200
C805        C  0.66018476  0.02698372  0.21676748    -0.01200
C806        C  0.65563868  0.00294847  0.23112216    -0.06400
H807        H  0.68665928  0.00523322  0.32965434     0.06100
H808        H  0.65273351  0.03282385  0.18508444     0.09500
Br809      Br  0.69425117  0.95081664  0.22192378    -0.06100
Br810      Br  0.61717807  0.94321721  0.39393957    -0.03000
Br811      Br  0.70214407  0.05660885  0.32276717    -0.00200
Br812      Br  0.63515608  0.98217378  0.19477382    -0.04500
C813        C  0.85588450  0.26958427  0.20062288    -0.11900
C814        C  0.83207755  0.27011835  0.22030542     0.03500
C815        C  0.81666506  0.24956777  0.21780607    -0.12500
C816        C  0.82451170  0.22816785  0.19648319     0.18400
C817        C  0.84854237  0.22710891  0.17839812    -0.09500
C818        C  0.86415148  0.24774691  0.18078828    -0.02500
H819        H  0.79827758  0.25032948  0.23228530     0.04900
C820        C  0.80630959  0.20812769  0.19101611     0.20400
H821        H  0.88249194  0.24693699  0.16618885     0.10100
C822        C  0.78757670  0.21104959  0.15933110    -0.15900
C823        C  0.76741343  0.19490112  0.15764522     0.03100
C824        C  0.76570197  0.17537094  0.18843426    -0.11200
C825        C  0.78530685  0.17167457  0.21849441    -0.01200
C826        C  0.80542669  0.18799193  0.22018502    -0.06400
H827        H  0.78825646  0.22651282  0.13670783     0.06100
H828        H  0.78432885  0.15687871  0.24248698     0.09500
Br829      Br  0.86027411  0.19820876  0.14898507    -0.06100
Br830      Br  0.81981825  0.29782791  0.25317051    -0.03000
Br831      Br  0.74300142  0.20065767  0.11241916    -0.00200
Br832      Br  0.83025216  0.18318950  0.26489127    -0.04500
C833        C  0.66570859  0.16748104  0.06048873    -0.11900
C834        C  0.65469637  0.19078521  0.05580452     0.03500
C835        C  0.65005090  0.20008391  0.01329424    -0.12500
C836        C  0.65620255  0.18645399  0.97541780     0.18400
C837        C  0.66751018  0.16343764  0.98006517    -0.09500
C838        C  0.67211988  0.15411742  0.02233101    -0.02500
H839        H  0.64108977  0.21771249  0.00972635     0.04900
C840        C  0.64975266  0.19578797  0.93114813     0.20400
H841        H  0.68059602  0.13621467  0.02540286     0.10100
C842        C  0.66810644  0.20711074  0.90526998    -0.15900
C843        C  0.66346306  0.21325329  0.86098513     0.03100
C844        C  0.64007364  0.20790726  0.84212939    -0.11200
C845        C  0.62130500  0.19789619  0.86907958    -0.01200
C846        C  0.62603458  0.19171392  0.91325847    -0.06400
H847        H  0.68631181  0.21051854  0.91923791     0.06100
H848        H  0.60330209  0.19356779  0.85509893     0.09500
Br849      Br  0.67619062  0.14366822  0.92973256    -0.06100
Br850      Br  0.64365427  0.20973992  0.10578133    -0.03000
Br851      Br  0.68965523  0.22907085  0.82826970    -0.00200
Br852      Br  0.60017852  0.17611042  0.94698459    -0.04500
C853        C  0.66277012  0.17401472  0.56044061    -0.11900
C854        C  0.66244526  0.19159147  0.52627753     0.03500
C855        C  0.67111830  0.18536587  0.48395940    -0.12500
C856        C  0.67985964  0.16165060  0.47529922     0.18400
C857        C  0.68084235  0.14430164  0.50984265    -0.09500
C858        C  0.67240435  0.15061624  0.55223575    -0.02500
H859        H  0.67032047  0.19876616  0.45741127     0.04900
C860        C  0.68625633  0.15485683  0.42940029     0.20400
H861        H  0.67239846  0.13693462  0.57837285     0.11700
C862        C  0.70961973  0.16117880  0.41221299    -0.15900
C863        C  0.71559522  0.15585838  0.36796778     0.03100
C864        C  0.69810541  0.14391638  0.34085745    -0.11200
C865        C  0.67492783  0.13729305  0.35823023    -0.01200
C866        C  0.66883622  0.14280430  0.40215766    -0.06400
H867        H  0.72300341  0.17061318  0.43301468     0.06100
H868        H  0.66122244  0.12855568  0.33706450     0.09500
Br869      Br  0.69247271  0.11154747  0.49989274    -0.06100
Br870      Br  0.64982952  0.22399739  0.53601688    -0.03000
Br871      Br  0.74727669  0.16592145  0.34521189    -0.00200
Br872      Br  0.63611738  0.13471117  0.42281952    -0.04500
C873        C  0.60740071  0.14787162  0.22994137    -0.11900
C874        C  0.60354694  0.16402291  0.26631474     0.03500
C875        C  0.57942384  0.16932617  0.28032817    -0.12500
C876        C  0.55884998  0.15869473  0.25932380     0.18400
C877        C  0.56254480  0.14224764  0.22397607    -0.09500
C878        C  0.58659702  0.13696991  0.20957689    -0.02500
H879        H  0.57666044  0.18175640  0.30800547     0.04900
C880        C  0.53367406  0.16487345  0.27504729     0.20400
H881        H  0.58896377  0.12448375  0.18188743     0.10100
C882        C  0.51860185  0.18001433  0.24906233    -0.15900
C883        C  0.49480416  0.18659448  0.26330292     0.03100
C884        C  0.48581154  0.17823222  0.30501735    -0.11200
C885        C  0.50104745  0.16263933  0.33041610    -0.01200
C886        C  0.52463922  0.15592814  0.31574422    -0.06400
H887        H  0.52541325  0.18670109  0.21737357     0.06100
H888        H  0.49478070  0.15573461  0.36228341     0.09500
Br889      Br  0.53524336  0.12612834  0.19518673    -0.06100
Br890      Br  0.62998934  0.17873757  0.30013344    -0.03000
Br891      Br  0.47572157  0.20618751  0.22290261    -0.00200
Br892      Br  0.54370282  0.13399809  0.35187967    -0.04500
C893        C  0.35416145  0.99159777  0.25687782    -0.11900
C894        C  0.33986885  0.00077712  0.29272093     0.03500
C895        C  0.34598819  0.02342582  0.31215113    -0.12500
C896        C  0.36582014  0.03765963  0.29609999     0.18400
C897        C  0.38028068  0.02844623  0.26089919    -0.09500
C898        C  0.37455393  0.00562414  0.24201259    -0.02500
H899        H  0.33491636  0.03020304  0.33955557     0.04900
C900        C  0.37064582  0.06245738  0.31497672     0.20400
H901        H  0.38567916  0.99924667  0.21437166     0.10100
C902        C  0.39315636  0.06738064  0.33668130    -0.15900
C903        C  0.39924893  0.09114723  0.35121084     0.03100
C904        C  0.38281814  0.11084675  0.34288271    -0.11200
C905        C  0.35967588  0.10536253  0.32341623    -0.01200
C906        C  0.35343279  0.08156135  0.31006245    -0.06400
H907        H  0.40615747  0.05260550  0.34209549     0.06100
H908        H  0.34629511  0.11974766  0.31768638     0.09500
Br909      Br  0.40706747  0.04705225  0.23531457    -0.06100
Br910      Br  0.31203389  0.98344267  0.31760898    -0.03000
Br911      Br  0.42974761  0.09468555  0.38358659    -0.00200
Br912      Br  0.32138418  0.07651912  0.28381550    -0.04500
C913        C  0.36464356  0.87524735  0.05866204    -0.11900
C914        C  0.35650462  0.88642286  0.01888623     0.03500
C915        C  0.36120689  0.87527974  0.97798522    -0.12500
C916        C  0.37388449  0.85299763  0.97540085     0.18400
C917        C  0.38204482  0.84167929  0.01470994    -0.09500
C918        C  0.37723147  0.85271118  0.05596022    -0.02500
H919        H  0.35491427  0.88409425  0.94777426     0.04900
C920        C  0.37889931  0.84272651  0.93082960     0.20400
H921        H  0.38368938  0.84382097  0.08595500     0.10100
C922        C  0.40280345  0.84484011  0.91300575    -0.15900
C923        C  0.40725142  0.83995122  0.86802617     0.03100
C924        C  0.38735451  0.83308516  0.83989218    -0.11200
C925        C  0.36370511  0.82969315  0.85855346    -0.01200
C926        C  0.35944178  0.83426005  0.90365465    -0.06400
H927        H  0.41782908  0.85152727  0.93368791     0.06100
H928        H  0.34834501  0.82391832  0.83778067     0.09500
Br929      Br  0.39945936  0.81111302  0.01343251    -0.06100
Br930      Br  0.33769401  0.91616659  0.01747723    -0.03000
Br931      Br  0.44038167  0.84552770  0.84677781    -0.00200
Br932      Br  0.32666524  0.82916344  0.92673946    -0.04500
C933        C  0.32108969  0.89055902  0.34001447    -0.11900
C934        C  0.31433977  0.86756985  0.35794766     0.03500
C935        C  0.31793031  0.86303415  0.40327592    -0.12500
C936        C  0.32793639  0.88128126  0.43090151     0.18400
C937        C  0.33254532  0.90486950  0.41368571    -0.09500
C938        C  0.32896023  0.90939965  0.36856603    -0.02500
H939        H  0.31424217  0.84487349  0.41645106     0.04900
C940        C  0.33869007  0.87428831  0.47390880     0.20400
H941        H  0.33385223  0.92727321  0.35529552     0.10100
C942        C  0.36431168  0.87117822  0.47541526    -0.15900
C943        C  0.37643377  0.86673666  0.51533952     0.03100
C944        C  0.36267148  0.86507581  0.55552415    -0.11200
C945        C  0.33663392  0.86723439  0.55337240    -0.01200
C946        C  0.32463817  0.87184688  0.51294111    -0.06400
H947        H  0.37508783  0.87282105  0.44508811     0.06100
H948        H  0.32553876  0.86594743  0.58331367     0.09500
Br949      Br  0.34592619  0.93076581  0.44988935    -0.06100
Br950      Br  0.30018534  0.84197421  0.32202033    -0.03000
Br951      Br  0.41173360  0.86356694  0.51044430    -0.00200
Br952      Br  0.28934789  0.87557226  0.51259301    -0.04500
C953        C  0.54565968  0.86098671  0.28465376    -0.11900
C954        C  0.53736306  0.88558528  0.28495565     0.03500
C955        C  0.51343608  0.89104748  0.27023642    -0.12500
C956        C  0.49772527  0.87251213  0.25428357     0.18400
C957        C  0.50658592  0.84842525  0.25047660    -0.09500
C958        C  0.53031360  0.84278433  0.26580190    -0.02500
H959        H  0.50689340  0.90978695  0.27186494     0.04900
C960        C  0.47190083  0.87852694  0.24302468     0.20400
H961        H  0.53630971  0.82385885  0.26465532     0.10100
C962        C  0.46627960  0.88642590  0.20000044    -0.15900
C963        C  0.44194012  0.89220822  0.18827654     0.03100
C964        C  0.42280746  0.89068546  0.22039664    -0.11200
C965        C  0.42850926  0.88233515  0.26335293    -0.01200
C966        C  0.45284227  0.87622186  0.27475272    -0.06400
H967        H  0.48083324  0.88764363  0.17523340     0.06100
H968        H  0.41402535  0.88063020  0.28815401     0.09500
Br969      Br  0.48656528  0.82260588  0.22581924    -0.06100
Br970      Br  0.55781837  0.91266898  0.30370176    -0.03000
Br971      Br  0.43579497  0.89981484  0.12690199    -0.00200
Br972      Br  0.45928948  0.86450276  0.33376469    -0.04500
C973        C  0.05362663  0.73556438  0.09567835    -0.11900
C974        C  0.02922535  0.72621437  0.09320711     0.03500
C975        C  0.01330102  0.73434690  0.05999359    -0.12500
C976        C  0.02124079  0.75159859  0.02850866     0.18400
C977        C  0.04487195  0.76249566  0.03301440    -0.09500
C978        C  0.06089759  0.75450283  0.06671940    -0.02500
H979        H  0.99510018  0.72597986  0.05700864     0.04900
C980        C  0.00609169  0.75405916  0.98785785     0.20400
H981        H  0.07947483  0.76207097  0.06867630     0.10100
C982        C  0.98185012  0.76329802  0.99106812    -0.15900
C983        C  0.96431832  0.75837569  0.95773710     0.03100
C984        C  0.97115622  0.74417815  0.92067781    -0.11200
C985        C  0.99588661  0.73696683  0.91568749    -0.01200
C986        C  0.01323868  0.74147502  0.94900923    -0.06400
H987        H  0.97600799  0.77248621  0.02122449     0.06100
H988        H  0.00116173  0.72565388  0.88760312     0.09500
Br989      Br  0.05635250  0.78716926  0.99237343    -0.06100
Br990      Br  0.01670027  0.70179508  0.13356994    -0.03000
Br991      Br  0.93063127  0.76815891  0.96718366    -0.00200
Br992      Br  0.04494919  0.72590465  0.94319348    -0.04500
C993        C  0.91369174  0.65167416  0.31801217    -0.11900
C994        C  0.91915944  0.66363034  0.27735587     0.03500
C995        C  0.94375883  0.66925910  0.26634253    -0.12500
C996        C  0.96334303  0.66292085  0.29464759     0.18400
C997        C  0.95800699  0.65113090  0.33518392    -0.09500
C998        C  0.93340502  0.64558723  0.34649550    -0.02500
H999        H  0.94773171  0.67814077  0.23488036     0.04900
C1000       C  0.98917194  0.66769906  0.27995181     0.20400
H1001       H  0.92968652  0.63647606  0.37782516     0.10100
C1002       C  0.00366586  0.68557188  0.30151734    -0.15900
C1003       C  0.02758368  0.69145566  0.28623107     0.03100
C1004       C  0.03737025  0.67928348  0.24860910    -0.11200
C1005       C  0.02301432  0.66077242  0.22832189    -0.01200
C1006       C  0.99917784  0.65510025  0.24334390    -0.06400
H1007       H  0.99618760  0.69522434  0.32998193     0.06100
H1008       H  0.02997151  0.65116260  0.19938838     0.09500
Br1009     Br  0.98374995  0.64134790  0.37526473    -0.06100
Br1010     Br  0.89438508  0.67111557  0.23358815    -0.03000
Br1011     Br  0.04605118  0.71557231  0.31905018    -0.00200
Br1012     Br  0.98094440  0.63003631  0.21235601    -0.04500
C1013       C  0.26683659  0.85854994  0.18001996    -0.11900
C1014       C  0.27011655  0.83271226  0.17675813     0.03500
C1015       C  0.24958724  0.81714421  0.17243024    -0.12500
C1016       C  0.22542461  0.82628514  0.17102476     0.18400
C1017       C  0.22191156  0.85184231  0.17465506    -0.09500
C1018       C  0.24245421  0.86767541  0.17898676    -0.02500
H1019       H  0.25249367  0.79749347  0.17106587     0.04900
C1020       C  0.20444872  0.80839044  0.16887609     0.20400
H1021       H  0.23927341  0.88722368  0.18170910     0.10100
C1022       C  0.18819042  0.80643723  0.20513766    -0.15900
C1023       C  0.17053871  0.78750743  0.20759367     0.03100
C1024       C  0.16881437  0.76986531  0.17311867    -0.11200
C1025       C  0.18473031  0.77219615  0.13630010    -0.01200
C1026       C  0.20233425  0.79120716  0.13390573    -0.06400
H1027       H  0.19005634  0.81903190  0.23283980     0.06100
H1028       H  0.18381409  0.75886653  0.10960175     0.09500
Br1029     Br  0.18947336  0.86602186  0.17322575    -0.06100
Br1030     Br  0.30160472  0.81638634  0.18059165    -0.03000
Br1031     Br  0.15154475  0.78529309  0.26155210    -0.00200
Br1032     Br  0.22334243  0.79269468  0.08240219    -0.04500
C1033       C  0.15075213  0.66931671  0.04587934    -0.11900
C1034       C  0.17237432  0.65506991  0.04054062     0.03500
C1035       C  0.18149455  0.65034329  0.99788004    -0.12500
C1036       C  0.16923898  0.65930806  0.96028220     0.18400
C1037       C  0.14710645  0.67257316  0.96547099    -0.09500
C1038       C  0.13816689  0.67762942  0.00801724    -0.02500
H1039       H  0.19807549  0.63942849  0.99395123     0.04900
C1040       C  0.17910231  0.65378205  0.91574038     0.20400
H1041       H  0.12126532  0.68810162  0.01150306     0.10100
C1042       C  0.17784451  0.62963181  0.89983732    -0.15900
C1043       C  0.18426498  0.62419776  0.85589478     0.03100
C1044       C  0.19210110  0.64327113  0.82725928    -0.11200
C1045       C  0.19455609  0.66719867  0.84409203    -0.01200
C1046       C  0.18839367  0.67250097  0.88808574    -0.06400
H1047       H  0.17081653  0.61514389  0.92115983     0.06100
H1048       H  0.20088278  0.68194878  0.82265233     0.09500
Br1049     Br  0.12781525  0.68319514  0.91549703    -0.06100
Br1050     Br  0.18908289  0.63983912  0.08962412    -0.03000
Br1051     Br  0.17945582  0.59097616  0.83608484    -0.00200
Br1052     Br  0.19265379  0.70558631  0.90879081    -0.04500
C1053       C  0.16255681  0.66451127  0.54356229    -0.11900
C1054       C  0.14819964  0.65390395  0.50916985     0.03500
C1055       C  0.14605306  0.66603925  0.46865806    -0.12500
C1056       C  0.15802024  0.68852419  0.46148767     0.18400
C1057       C  0.17189580  0.69942995  0.49565617    -0.09500
C1058       C  0.17394269  0.68748237  0.53654769    -0.02500
H1059       H  0.13529351  0.65769857  0.44217487     0.04900
C1060       C  0.15683088  0.69910259  0.41680902     0.20400
H1061       H  0.18507988  0.69584228  0.56246885     0.10100
C1062       C  0.13820376  0.71593684  0.40662533    -0.15900
C1063       C  0.13310322  0.72199002  0.36240390     0.03100
C1064       C  0.14647326  0.71045697  0.32774768    -0.11200
C1065       C  0.16674979  0.69551600  0.33884626    -0.01200
C1066       C  0.17185865  0.68969601  0.38289567    -0.06400
H1067       H  0.12696653  0.72359757  0.43302920     0.06100
H1068       H  0.17789303  0.68705445  0.31317167     0.09500
Br1069     Br  0.18915282  0.72990398  0.48703953    -0.06100
Br1070     Br  0.13037868  0.62340479  0.51510105    -0.03000
Br1071     Br  0.10800488  0.74618355  0.35225923    -0.00200
Br1072     Br  0.19834946  0.66732031  0.39518981    -0.04500
C1073       C  0.17083529  0.49320258  0.28088275    -0.11900
C1074       C  0.14547739  0.49995974  0.27935152     0.03500
C1075       C  0.13876679  0.52312562  0.26333344    -0.12500
C1076       C  0.15671142  0.53963931  0.24756736     0.18400
C1077       C  0.18163593  0.53230338  0.24582862    -0.09500
C1078       C  0.18852586  0.50937506  0.26249721    -0.02500
H1079       H  0.11945295  0.52846543  0.26385455     0.04900
C1080       C  0.14947932  0.56496471  0.23564376     0.20400
H1081       H  0.20797864  0.50457509  0.26228978     0.10100
C1082       C  0.15670714  0.58431875  0.26357502    -0.15900
C1083       C  0.15113660  0.60867973  0.25300992     0.03100
C1084       C  0.13833351  0.61412498  0.21324119    -0.11200
C1085       C  0.13035180  0.59449910  0.18616410    -0.01200
C1086       C  0.13570245  0.57012900  0.19716583    -0.06400
H1087       H  0.16673348  0.58039594  0.29392460     0.06100
H1088       H  0.12032030  0.59810456  0.15570931     0.09500
Br1089     Br  0.20688175  0.55313759  0.22098418    -0.06100
Br1090     Br  0.11881632  0.47855239  0.29727705    -0.03000
Br1091     Br  0.16029134  0.63321078  0.29581470    -0.00200
Br1092     Br  0.12459840  0.54458802  0.15791158    -0.04500
C1093       C  0.34779160  0.04520276  0.79708577    -0.11900
C1094       C  0.34567889  0.04047855  0.75099934     0.03500
C1095       C  0.35265396  0.01752032  0.73387499    -0.12500
C1096       C  0.36169940  0.99901179  0.76191987     0.18400
C1097       C  0.36377924  0.00371628  0.80774437    -0.09500
C1098       C  0.35697580  0.02655966  0.82481302    -0.02500
H1099       H  0.35111141  0.01410167  0.69850374     0.04900
C1100       C  0.36848248  0.97468063  0.74349877     0.20400
H1101       H  0.35856722  0.02962293  0.86029369     0.10100
C1102       C  0.39346841  0.96757259  0.74260578    -0.15900
C1103       C  0.40025838  0.94383548  0.72943065     0.03100
C1104       C  0.38179039  0.92664292  0.71718006    -0.11200
C1105       C  0.35686202  0.93402424  0.71729641    -0.01200
C1106       C  0.35016405  0.95780196  0.72991723    -0.06400
H1107       H  0.40769307  0.98039522  0.75323643     0.06100
H1108       H  0.34245726  0.92121151  0.70741678     0.09500
Br1109     Br  0.37494944  0.97915517  0.84872912    -0.06100
Br1110     Br  0.33484937  0.06491412  0.70951123    -0.03000
Br1111     Br  0.43476083  0.93549398  0.73202125    -0.00200
Br1112     Br  0.31565076  0.96606730  0.72973740    -0.04500
C1113       C  0.29357812  0.07399242  0.95870758    -0.11900
C1114       C  0.29978453  0.07656511  0.00404236     0.03500
C1115       C  0.29475098  0.05731867  0.03341026    -0.12500
C1116       C  0.28311841  0.03583731  0.01823202     0.18400
C1117       C  0.27307510  0.03519112  0.97516552    -0.09500
C1118       C  0.27842864  0.05422564  0.94552849    -0.02500
H1119       H  0.30181225  0.05825793  0.06708095     0.04900
C1120       C  0.28714009  0.01302689  0.04333073     0.20400
H1121       H  0.27279143  0.05230110  0.91114443     0.10100
C1122       C  0.27467010  0.00886753  0.08352569    -0.15900
C1123       C  0.28131885  0.98921728  0.11102504     0.03100
C1124       C  0.30085301  0.97352230  0.09822641    -0.11200
C1125       C  0.31279075  0.97753497  0.05741933    -0.01200
C1126       C  0.30612289  0.99697689  0.03003768    -0.06400
H1127       H  0.26051095  0.02155573  0.09439809     0.06100
H1128       H  0.32829293  0.96621801  0.04772504     0.09500
Br1129     Br  0.25473091  0.00727044  0.95414915    -0.06100
Br1130     Br  0.31620048  0.10529509  0.02695731    -0.03000
Br1131     Br  0.26530858  0.98681593  0.16789886    -0.00200
Br1132     Br  0.32535128  0.00224382  0.97696193    -0.04500
C1133       C  0.36096358  0.16814939  0.98389432    -0.11900
C1134       C  0.34150211  0.17898877  0.00809109     0.03500
C1135       C  0.34600846  0.18789147  0.05088121    -0.12500
C1136       C  0.36970031  0.18616972  0.06954360     0.18400
C1137       C  0.38930878  0.17628564  0.04464602    -0.09500
C1138       C  0.38480977  0.16723430  0.00212113    -0.02500
H1139       H  0.33079781  0.19504958  0.07044225     0.04900
C1140       C  0.37295155  0.19095463  0.11705406     0.20400
H1141       H  0.39985550  0.15902927  0.98352180     0.10100
C1142       C  0.37416209  0.17071532  0.14550328    -0.15900
C1143       C  0.37871213  0.17386572  0.19061021     0.03100
C1144       C  0.38219516  0.19773448  0.20777923    -0.11200
C1145       C  0.38078955  0.21806265  0.17926129    -0.01200
C1146       C  0.37590993  0.21480555  0.13401606    -0.06400
H1147       H  0.37195241  0.15231927  0.13228728     0.06100
H1148       H  0.38308478  0.23646909  0.19232584     0.09500
Br1149     Br  0.42222954  0.17387798  0.06834444    -0.06100
Br1150     Br  0.30806149  0.17960595  0.98626323    -0.03000
Br1151     Br  0.38136839  0.14472320  0.22626706    -0.00200
Br1152     Br  0.37360598  0.24315631  0.09658878    -0.04500
C1153       C  0.35799902  0.17430023  0.48742801    -0.11900
C1154       C  0.33925947  0.18970249  0.50441681     0.03500
C1155       C  0.32783959  0.18369826  0.54461548    -0.12500
C1156       C  0.33489172  0.16267143  0.56798124     0.18400
C1157       C  0.35250279  0.14665540  0.54996900    -0.09500
C1158       C  0.36389306  0.15253564  0.50994041    -0.02500
H1159       H  0.31461593  0.19625942  0.55917866     0.04900
C1160       C  0.32830196  0.16057503  0.61481053     0.20400
H1161       H  0.37778648  0.14021159  0.49679694     0.10100
C1162       C  0.31041274  0.14354771  0.62867741    -0.15900
C1163       C  0.30687097  0.13878805  0.67393665     0.03100
C1164       C  0.32172141  0.15126444  0.70571860    -0.11200
C1165       C  0.33824569  0.16962576  0.69096138    -0.01200
C1166       C  0.34195443  0.17397724  0.64613878    -0.06400
H1167       H  0.29980972  0.13338723  0.60417406     0.06100
H1168       H  0.34919413  0.18023167  0.71422313     0.09500
Br1169     Br  0.36317347  0.11773092  0.58081875    -0.06100
Br1170     Br  0.33012830  0.22025562  0.47727215    -0.03000
Br1171     Br  0.28166125  0.11511739  0.68879157    -0.00200
Br1172     Br  0.36755147  0.19689160  0.62931035    -0.04500
C1173       C  0.54107887  0.17068784  0.74743910    -0.11900
C1174       C  0.53069973  0.18071391  0.78656300     0.03500
C1175       C  0.50756430  0.17238522  0.80166134    -0.12500
C1176       C  0.49452992  0.15402403  0.77868985     0.18400
C1177       C  0.50529962  0.14316784  0.74102118    -0.09500
C1178       C  0.52837076  0.15143832  0.72580782    -0.02500
H1179       H  0.49943697  0.18062864  0.83100228     0.04900
C1180       C  0.46888456  0.14802954  0.79229696     0.20400
H1181       H  0.53600544  0.14325524  0.69599665     0.10100
C1182       C  0.44927269  0.15769564  0.76753922    -0.15900
C1183       C  0.42468752  0.15401167  0.78075766     0.03100
C1184       C  0.41933976  0.14041057  0.81961118    -0.11200
C1185       C  0.43906860  0.12999669  0.84347484    -0.01200
C1186       C  0.46369411  0.13383029  0.83023487    -0.06400
H1187       H  0.45316252  0.16840786  0.73796857     0.06100
H1188       H  0.43537084  0.11935973  0.87319623     0.09500
Br1189     Br  0.48897256  0.11722936  0.70907200    -0.06100
Br1190     Br  0.54733900  0.20514757  0.82172748    -0.03000
Br1191     Br  0.39941453  0.16711422  0.74308654    -0.00200
Br1192     Br  0.48966542  0.11938206  0.86470820    -0.04500
C1193       C  0.03919010  0.35872751  0.78299684    -0.11900
C1194       C  0.02927365  0.34876491  0.74328369     0.03500
C1195       C  0.00550179  0.35567334  0.72908153    -0.12500
C1196       C  0.99133538  0.37235614  0.75381588     0.18400
C1197       C  0.00136535  0.38267423  0.79263123    -0.09500
C1198       C  0.02502507  0.37600545  0.80668084    -0.02500
H1199       H  0.99790148  0.34778088  0.69894376     0.04900
C1200       C  0.96565622  0.37810667  0.74031225     0.20400
H1201       H  0.03199525  0.38384951  0.83734910     0.10100
C1202       C  0.94601944  0.36547143  0.76055706    -0.15900
C1203       C  0.92133045  0.37148949  0.75152555     0.03100
C1204       C  0.91582787  0.39063641  0.72105076    -0.11200
C1205       C  0.93584048  0.40319691  0.70085350    -0.01200
C1206       C  0.96047072  0.39711660  0.71030884    -0.06400
H1207       H  0.94998490  0.35106829  0.78429391     0.06100
H1208       H  0.93243225  0.41789800  0.67748025     0.09500
Br1209     Br  0.98303655  0.40548281  0.82829628    -0.06100
Br1210     Br  0.04729869  0.32632521  0.70634415    -0.03000
Br1211     Br  0.89671790  0.35299824  0.78375261    -0.00200
Br1212     Br  0.98653757  0.41560635  0.68240832    -0.04500
C1213       C  0.96532007  0.30207632  0.10050224    -0.11900
C1214       C  0.98556883  0.28703060  0.11196035     0.03500
C1215       C  0.00374657  0.28172460  0.07998506    -0.12500
C1216       C  0.00223653  0.29151738  0.03687754     0.18400
C1217       C  0.98094860  0.30470310  0.02457491    -0.09500
C1218       C  0.96270784  0.30967355  0.05615613    -0.02500
H1219       H  0.02010277  0.27164109  0.08976017     0.04900
C1220       C  0.02442746  0.29204597  0.00782879     0.20400
H1221       H  0.94725089  0.32117521  0.04675413     0.10100
C1222       C  0.02400180  0.28005858  0.96650661    -0.15900
C1223       C  0.04183115  0.28542939  0.93385174     0.03100
C1224       C  0.06063178  0.30296908  0.94270530    -0.11200
C1225       C  0.06213118  0.31322592  0.98549169    -0.01200
C1226       C  0.04428943  0.30799706  0.01780520    -0.06400
H1227       H  0.00872892  0.26784654  0.95851462     0.06100
H1228       H  0.07653295  0.32651609  0.99312838     0.09500
Br1229     Br  0.97741281  0.31938793  0.96688788    -0.06100
Br1230     Br  0.99140771  0.27635318  0.17182272    -0.03000
Br1231     Br  0.03740969  0.27062137  0.87645565    -0.00200
Br1232     Br  0.04639864  0.32547221  0.07317989    -0.04500
C1233       C  0.16573919  0.26434672  0.86224344    -0.11900
C1234       C  0.18457760  0.26595805  0.89494387     0.03500
C1235       C  0.20138744  0.24676019  0.90005752    -0.12500
C1236       C  0.19969035  0.22573739  0.87350494     0.18400
C1237       C  0.17953374  0.22299602  0.84424507    -0.09500
C1238       C  0.16264807  0.24221047  0.83888148    -0.02500
H1239       H  0.21670788  0.24883162  0.92304376     0.04900
C1240       C  0.22129655  0.20931256  0.87078121     0.20400
H1241       H  0.14818520  0.24047070  0.81412136     0.10100
C1242       C  0.22216850  0.18754733  0.89562922    -0.15900
C1243       C  0.24262336  0.17181517  0.89225830     0.03100
C1244       C  0.26243637  0.17786690  0.86346485    -0.11200
C1245       C  0.26161054  0.19999178  0.83961401    -0.01200
C1246       C  0.24133993  0.21561049  0.84304994    -0.06400
H1247       H  0.20698899  0.18286346  0.91769839     0.06100
H1248       H  0.27664587  0.20498319  0.81741352     0.09500
Br1249     Br  0.17585845  0.19425774  0.80801519    -0.06100
Br1250     Br  0.18888341  0.29404943  0.93301164    -0.03000
Br1251     Br  0.24330715  0.14328380  0.92959211    -0.00200
Br1252     Br  0.24163529  0.24526874  0.80853689    -0.04500
C1253       C  0.16139041  0.36127266  0.97409063    -0.11900
C1254       C  0.18601383  0.36992372  0.97935370     0.03500
C1255       C  0.19522504  0.37470577  0.02204777    -0.12500
C1256       C  0.18042787  0.37071630  0.05967406     0.18400
C1257       C  0.15642928  0.36096759  0.05464293    -0.09500
C1258       C  0.14706910  0.35645725  0.01220027    -0.02500
H1259       H  0.21372890  0.38223126  0.02587613     0.04900
C1260       C  0.18924785  0.37858721  0.10380699     0.20400
H1261       H  0.12835879  0.34934452  0.00900320     0.10100
C1262       C  0.18041619  0.40073501  0.12123524    -0.15900
C1263       C  0.18559678  0.40750504  0.16505272     0.03100
C1264       C  0.19990425  0.39194320  0.19209615    -0.11200
C1265       C  0.20938251  0.37011711  0.17418247    -0.01200
C1266       C  0.20429779  0.36346089  0.13014977    -0.06400
H1267       H  0.16858804  0.41229789  0.10118065     0.06100
H1268       H  0.22032244  0.35800373  0.19477998     0.09500
Br1269     Br  0.13566712  0.35385495  0.10494942    -0.06100
Br1270     Br  0.20741908  0.37739810  0.93004602    -0.03000
Br1271     Br  0.17041018  0.43677984  0.18764743    -0.00200
Br1272     Br  0.21707601  0.33305844  0.10797372    -0.04500
C1273       C  0.14119279  0.32680021  0.69148153    -0.11900
C1274       C  0.16472687  0.32304405  0.67220650     0.03500
C1275       C  0.16943604  0.33113356  0.62884560    -0.12500
C1276       C  0.15096420  0.34293525  0.60424626     0.18400
C1277       C  0.12705710  0.34532376  0.62238225    -0.09500
C1278       C  0.12228963  0.33714822  0.66563612    -0.02500
H1279       H  0.18776316  0.32886361  0.61471516     0.04900
C1280       C  0.15733836  0.35393298  0.56087142     0.20400
H1281       H  0.10420207  0.34038154  0.68010475     0.10100
C1282       C  0.15139898  0.34138551  0.52167700    -0.15900
C1283       C  0.15662236  0.35170710  0.48006845     0.03100
C1284       C  0.16855129  0.37490941  0.47734240    -0.11200
C1285       C  0.17431600  0.38740596  0.51694688    -0.01200
C1286       C  0.16869633  0.37718049  0.55836750    -0.06400
H1287       H  0.14215470  0.32370799  0.52351488     0.06100
H1288       H  0.18306836  0.40534056  0.51576339     0.09500
Br1289     Br  0.10098209  0.36138796  0.59057264    -0.06100
Br1290     Br  0.19096383  0.30695147  0.70363570    -0.03000
Br1291     Br  0.14486766  0.33400296  0.42891244    -0.00200
Br1292     Br  0.17594217  0.39604410  0.61066377    -0.04500
C1293       C  0.14409721  0.42055891  0.80543138    -0.11900
C1294       C  0.16153569  0.42532994  0.77109065     0.03500
C1295       C  0.16642978  0.44952584  0.75797493    -0.12500
C1296       C  0.15479962  0.46941682  0.77878563     0.18400
C1297       C  0.13733660  0.46475655  0.81263211    -0.09500
C1298       C  0.13208112  0.44061645  0.82540451    -0.02500
H1299       H  0.17948971  0.45287886  0.73123403     0.04900
C1300       C  0.16067304  0.49474770  0.76374025     0.20400
H1301       H  0.11882310  0.43763650  0.85194855     0.10100
C1302       C  0.14168650  0.50938827  0.74659814    -0.15900
C1303       C  0.14649565  0.53308518  0.73080751     0.03100
C1304       C  0.17116488  0.54231569  0.73009293    -0.11200
C1305       C  0.19005194  0.52770288  0.74822792    -0.01200
C1306       C  0.18499563  0.50427927  0.76515462    -0.06400
H1307       H  0.12288944  0.50230536  0.74552330     0.06100
H1308       H  0.20901578  0.53431952  0.74874949     0.09500
Br1309     Br  0.12091312  0.49065329  0.84413957    -0.06100
Br1310     Br  0.17922992  0.40018721  0.73955273    -0.03000
Br1311     Br  0.11801735  0.55170371  0.71284892    -0.00200
Br1312     Br  0.21193657  0.48633527  0.79082096    -0.04500
loop_ 
_geom_bond_atom_site_label_1 
_geom_bond_atom_site_label_2 
_geom_bond_distance 
_geom_bond_site_symmetry_2 
_ccdc_geom_bond_type 
Fe1          O17   2.064       .  S
Fe1           O7   2.036       .  S
Fe1          O14   2.054       .  S
Fe1           O6   2.059       .  S
Fe1          O12   1.978       .  S
Fe2           O5   2.062       .  S
Fe2           O9   2.057       .  S
Fe2          O13   2.071       .  S
Fe2          O18   2.053       .  S
Fe2          O12   1.966       .  S
Fe3          O21   2.073       .  S
Fe3           O8   2.086       .  S
Fe3          O15   2.091       .  S
Fe3           O4   2.073       .  S
Fe3          O12   1.984       .  S
O4           C11   1.271       .  A
O5           C19   1.270       .  A
O6           C11   1.268       .  A
O7           C10   1.262       .  A
O8           C20   1.272       .  A
O9           C22   1.268       .  A
C10          O15   1.272       .  A
C10        C1233   1.482       .  S
C11        C1273   1.475       .  S
O13          C16   1.270       .  A
O14          C16   1.264       .  A
C16        C1293   1.490       .  S
O17          C22   1.267       .  A
O18          C20   1.268       .  A
C19          O21   1.270       .  A
C19        C1224   1.484       .  S
C20        C1193   1.489       .  S
C22        C1253   1.480       .  S
Fe23         O39   2.078       .  S
Fe23         O29   2.028       .  S
Fe23         O36   2.042       .  S
Fe23         O28   2.058       .  S
Fe23         O34   1.965       .  S
Fe24         O27   2.062       .  S
Fe24         O31   2.060       .  S
Fe24         O35   2.062       .  S
Fe24         O40   2.053       .  S
Fe24         O34   1.967       .  S
Fe25         O43   2.082       .  S
Fe25         O30   2.068       .  S
Fe25         O37   2.068       .  S
Fe25         O26   2.073       .  S
Fe25         O34   1.976       .  S
O26          C33   1.269       .  A
O27          C41   1.268       .  A
O28          C33   1.267       .  A
O29          C32   1.266       .  A
O30          C42   1.270       .  A
O31          C44   1.268       .  A
C32          O37   1.268       .  A
C32        C1164   1.480       .  S
C33        C1244   1.479       .  S
O35          C38   1.267       .  A
O36          C38   1.262       .  A
C38        C1133   1.460       .  S
O39          C44   1.271       .  A
O40          C42   1.269       .  A
C41          O43   1.271       .  A
C41        C1093   1.488       .  S
C42        C1113   1.475       .  S
C44        C1184   1.482       .  S
Fe45         O61   2.068       .  S
Fe45         O51   2.067       .  S
Fe45         O58   2.070       .  S
Fe45         O50   2.064       .  S
Fe45         O56   1.961       .  S
Fe46         O49   2.069       .  S
Fe46         O53   2.055       .  S
Fe46         O57   2.070       .  S
Fe46         O62   2.050       .  S
Fe46         O56   1.957       .  S
Fe47         O65   2.070       .  S
Fe47         O52   2.093       .  S
Fe47         O59   2.084       .  S
Fe47         O48   2.058       .  S
Fe47         O56   1.965       .  S
O48          C55   1.270       .  A
O49          C63   1.271       .  A
O50          C55   1.271       .  A
O51          C54   1.270       .  A
O52          C64   1.273       .  A
O53          C66   1.269       .  A
C54          O59   1.272       .  A
C54        C1024   1.489       .  S
C55        C1064   1.481       .  S
O57          C60   1.269       .  A
O58          C60   1.269       .  A
C60        C1084   1.488       .  S
O61          C66   1.270       .  A
O62          C64   1.267       .  A
C63          O65   1.271       .  A
C63         C973   1.474       .  S
C64        C1004   1.488       .  S
C66        C1033   1.474       .  S
Fe67         O83   2.060       .  S
Fe67         O73   2.081       .  S
Fe67         O80   2.088       .  S
Fe67         O72   2.044       .  S
Fe67         O78   1.959       .  S
Fe68         O71   2.062       .  S
Fe68         O75   2.068       .  S
Fe68         O79   2.058       .  S
Fe68         O84   2.065       .  S
Fe68         O78   1.957       .  S
Fe69         O87   2.095       .  S
Fe69         O74   2.059       .  S
Fe69         O81   2.045       .  S
Fe69         O70   2.102       .  S
Fe69         O78   1.968       .  S
O70          C77   1.275       .  A
O71          C85   1.272       .  A
O72          C77   1.263       .  A
O73          C76   1.274       .  A
O74          C86   1.268       .  A
O75          C88   1.267       .  A
C76          O81   1.267       .  A
C76         C933   1.470       .  S
C77        C1013   1.498       .  S
O79          C82   1.271       .  A
O80          C82   1.275       .  A
C82         C913   1.485       .  S
O83          C88   1.266       .  A
O84          C86   1.270       .  A
C85          O87   1.275       .  A
C85         C893   1.493       .  S
C86        C1124   1.475       .  S
C88         C964   1.479       .  S
Fe89        O105   2.051       .  S
Fe89         O95   2.061       .  S
Fe89        O102   2.061       .  S
Fe89         O94   2.048       .  S
Fe89        O100   1.972       .  S
Fe90         O93   2.059       .  S
Fe90         O97   2.075       .  S
Fe90        O101   2.053       .  S
Fe90        O106   2.066       .  S
Fe90        O100   1.967       .  S
Fe91        O109   2.069       .  S
Fe91         O96   2.068       .  S
Fe91        O103   2.064       .  S
Fe91         O92   2.071       .  S
Fe91        O100   1.976       .  S
O92          C99   1.266       .  A
O93         C107   1.266       .  A
O94          C99   1.262       .  A
O95          C98   1.270       .  A
O96         C108   1.272       .  A
O97         C110   1.271       .  A
C98         O103   1.271       .  A
C98         C864   1.459       .  S
C99         C824   1.480       .  S
O101        C104   1.268       .  A
O102        C104   1.267       .  A
C104        C833   1.471       .  S
O105        C110   1.264       .  A
O106        C108   1.274       .  A
C107        O109   1.266       .  A
C107        C804   1.481       .  S
C108        C784   1.483       .  S
C110        C873   1.487       .  S
Fe111       O127   2.059       .  S
Fe111       O117   2.046       .  S
Fe111       O124   2.055       .  S
Fe111       O116   2.047       .  S
Fe111       O122   1.971       .  S
Fe112       O115   2.051       .  S
Fe112       O119   2.057       .  S
Fe112       O123   2.056       .  S
Fe112       O128   2.052       .  S
Fe112       O122   1.975       .  S
Fe113       O131   2.080       .  S
Fe113       O118   2.057       .  S
Fe113       O125   2.069       .  S
Fe113       O114   2.069       .  S
Fe113       O122   1.987       .  S
O114        C121   1.270       .  A
O115        C129   1.268       .  A
O116        C121   1.268       .  A
O117        C120   1.264       .  A
O118        C130   1.267       .  A
O119        C132   1.270       .  A
C120        O125   1.267       .  A
C120        C813   1.475       .  S
C121        C744   1.474       .  S
O123        C126   1.264       .  A
O124        C126   1.264       .  A
C126        C764   1.469       .  S
O127        C132   1.267       .  A
O128        C130   1.265       .  A
C129        O131   1.271       .  A
C129       C1213   1.480       .  S
C130        C704   1.475       .  S
C132        C713   1.486       .  S
Fe133       O149   2.068       .  S
Fe133       O139   2.049       .  S
Fe133       O146   2.057       .  S
Fe133       O138   2.063       .  S
Fe133       O144   1.947       .  S
Fe134       O137   2.062       .  S
Fe134       O141   2.051       .  S
Fe134       O145   2.075       .  S
Fe134       O150   2.043       .  S
Fe134       O144   1.949       .  S
Fe135       O153   2.072       .  S
Fe135       O140   2.087       .  S
Fe135       O147   2.089       .  S
Fe135       O136   2.054       .  S
Fe135       O144   1.958       .  S
O136        C143   1.268       .  A
O137        C151   1.269       .  A
O138        C143   1.268       .  A
O139        C142   1.267       .  A
O140        C152   1.274       .  A
O141        C154   1.269       .  A
C142        O147   1.274       .  A
C142        C613   1.483       .  S
C143        C664   1.465       .  S
O145        C148   1.268       .  A
O146        C148   1.267       .  A
C148        C684   1.477       .  S
O149        C154   1.270       .  A
O150        C152   1.268       .  A
C151        O153   1.269       .  A
C151        C984   1.469       .  S
C152        C593   1.478       .  S
C154        C644   1.475       .  S
Fe155       O171   2.060       .  S
Fe155       O161   2.062       .  S
Fe155       O168   2.061       .  S
Fe155       O160   2.051       .  S
Fe155       O166   1.956       .  S
Fe156       O159   2.054       .  S
Fe156       O163   2.076       .  S
Fe156       O167   2.047       .  S
Fe156       O172   2.074       .  S
Fe156       O166   1.948       .  S
Fe157       O175   2.080       .  S
Fe157       O162   2.055       .  S
Fe157       O169   2.047       .  S
Fe157       O158   2.083       .  S
Fe157       O166   1.962       .  S
O158        C165   1.271       .  A
O159        C173   1.264       .  A
O160        C165   1.266       .  A
O161        C164   1.270       .  A
O162        C174   1.270       .  A
O163        C176   1.270       .  A
C164        O169   1.268       .  A
C164        C564   1.464       .  S
C165        C624   1.479       .  S
O167        C170   1.266       .  A
O168        C170   1.267       .  A
C170        C544   1.468       .  S
O171        C176   1.270       .  A
O172        C174   1.274       .  A
C173        O175   1.270       .  A
C173        C513   1.490       .  S
C174        C773   1.467       .  S
C176        C584   1.495       .  S
Fe177       O193   2.034       .  S
Fe177       O183   2.058       .  S
Fe177       O190   2.070       .  S
Fe177       O182   2.031       .  S
Fe177       O188   1.966       .  S
Fe178       O181   2.059       .  S
Fe178       O185   2.061       .  S
Fe178       O189   2.068       .  S
Fe178       O194   2.062       .  S
Fe178       O188   1.962       .  S
Fe179       O197   2.075       .  S
Fe179       O184   2.069       .  S
Fe179       O191   2.069       .  S
Fe179       O180   2.078       .  S
Fe179       O188   1.975       .  S
O180        C187   1.273       .  A
O181        C195   1.271       .  A
O182        C187   1.265       .  A
O183        C186   1.267       .  A
O184        C196   1.268       .  A
O185        C198   1.270       .  A
C186        O191   1.266       .  A
C186        C484   1.489       .  S
C187       C1144   1.463       .  S
O189        C192   1.268       .  A
O190        C192   1.270       .  A
C192        C904   1.496       .  S
O193        C198   1.262       .  A
O194        C196   1.268       .  A
C195        O197   1.273       .  A
C195        C504   1.479       .  S
C196        C884   1.493       .  S
C198       C1153   1.465       .  S
Fe199       O215   2.059       .  S
Fe199       O205   2.070       .  S
Fe199       O212   2.071       .  S
Fe199       O204   2.053       .  S
Fe199       O210   1.969       .  S
Fe200       O203   2.054       .  S
Fe200       O207   2.056       .  S
Fe200       O211   2.057       .  S
Fe200       O216   2.051       .  S
Fe200       O210   1.963       .  S
Fe201       O219   2.082       .  S
Fe201       O206   2.069       .  S
Fe201       O213   2.059       .  S
Fe201       O202   2.084       .  S
Fe201       O210   1.976       .  S
O202        C209   1.272       .  A
O203        C217   1.266       .  A
O204        C209   1.268       .  A
O205        C208   1.269       .  A
O206        C218   1.269       .  A
O207        C220   1.266       .  A
C208        O213   1.267       .  A
C208       C1264   1.471       .  S
C209        C473   1.483       .  S
O211        C214   1.269       .  A
O212        C214   1.269       .  A
C214       C1284   1.483       .  S
O215        C220   1.268       .  A
O216        C218   1.268       .  A
C217        O219   1.273       .  A
C217       C1073   1.491       .  S
C218        C453   1.477       .  S
C220        C693   1.473       .  S
Fe221       O237   2.058       .  S
Fe221       O227   2.068       .  S
Fe221       O234   2.069       .  S
Fe221       O226   2.054       .  S
Fe221       O232   1.961       .  S
Fe222       O225   2.048       .  S
Fe222       O229   2.077       .  S
Fe222       O233   2.051       .  S
Fe222       O238   2.075       .  S
Fe222       O232   1.958       .  S
Fe223       O241   2.088       .  S
Fe223       O228   2.072       .  S
Fe223       O235   2.053       .  S
Fe223       O224   2.091       .  S
Fe223       O232   1.968       .  S
O224        C231   1.272       .  A
O225        C239   1.265       .  A
O226        C231   1.266       .  A
O227        C230   1.272       .  A
O228        C240   1.270       .  A
O229        C242   1.269       .  A
C230        O235   1.269       .  A
C230        C724   1.469       .  S
C231        C413   1.489       .  S
O233        C236   1.269       .  A
O234        C236   1.273       .  A
C236        C733   1.475       .  S
O237        C242   1.264       .  A
O238        C240   1.271       .  A
C239        O241   1.274       .  A
C239        C673   1.488       .  S
C240        C444   1.476       .  S
C242       C1204   1.497       .  S
Fe243       O259   2.078       .  S
Fe243       O249   2.049       .  S
Fe243       O256   2.052       .  S
Fe243       O248   2.065       .  S
Fe243       O254   1.962       .  S
Fe244       O247   2.074       .  S
Fe244       O251   2.047       .  S
Fe244       O255   2.081       .  S
Fe244       O260   2.047       .  S
Fe244       O254   1.957       .  S
Fe245       O263   2.065       .  S
Fe245       O250   2.092       .  S
Fe245       O257   2.099       .  S
Fe245       O246   2.056       .  S
Fe245       O254   1.967       .  S
O246        C253   1.269       .  A
O247        C261   1.272       .  A
O248        C253   1.269       .  A
O249        C252   1.268       .  A
O250        C262   1.273       .  A
O251        C264   1.266       .  A
C252        O257   1.275       .  A
C252        C424   1.482       .  S
C253        C844   1.473       .  S
O255        C258   1.271       .  A
O256        C258   1.265       .  A
C258        C524   1.484       .  S
O259        C264   1.270       .  A
O260        C262   1.266       .  A
C261        O263   1.271       .  A
C261        C493   1.481       .  S
C262       C1173   1.485       .  S
C264        C853   1.462       .  S
Fe265       O281   2.046       .  S
Fe265       O271   2.061       .  S
Fe265       O278   2.072       .  S
Fe265       O270   2.041       .  S
Fe265       O276   1.978       .  S
Fe266       O269   2.057       .  S
Fe266       O273   2.056       .  S
Fe266       O277   2.063       .  S
Fe266       O282   2.057       .  S
Fe266       O276   1.971       .  S
Fe267       O285   2.059       .  S
Fe267       O272   2.063       .  S
Fe267       O279   2.059       .  S
Fe267       O268   2.060       .  S
Fe267       O276   1.979       .  S
O268        C275   1.266       .  A
O269        C283   1.269       .  A
O270        C275   1.266       .  A
O271        C274   1.267       .  A
O272        C284   1.268       .  A
O273        C286   1.267       .  A
C274        O279   1.267       .  A
C274        C373   1.484       .  S
C275        C533   1.483       .  S
O277        C280   1.268       .  A
O278        C280   1.270       .  A
C280        C793   1.487       .  S
O281        C286   1.264       .  A
O282        C284   1.266       .  A
C283        O285   1.267       .  A
C283        C393   1.476       .  S
C284        C953   1.482       .  S
C286        C553   1.468       .  S
Fe287       O303   2.060       .  S
Fe287       O293   2.056       .  S
Fe287       O300   2.059       .  S
Fe287       O292   2.055       .  S
Fe287       O298   1.971       .  S
Fe288       O291   2.052       .  S
Fe288       O295   2.077       .  S
Fe288       O299   2.051       .  S
Fe288       O304   2.069       .  S
Fe288       O298   1.965       .  S
Fe289       O307   2.065       .  S
Fe289       O294   2.068       .  S
Fe289       O301   2.057       .  S
Fe289       O290   2.067       .  S
Fe289       O298   1.977       .  S
O290        C297   1.266       .  A
O291        C305   1.265       .  A
O292        C297   1.266       .  A
O293        C296   1.269       .  A
O294        C306   1.269       .  A
O295        C308   1.270       .  A
C296        O301   1.268       .  A
C296        C633   1.475       .  S
C297        C384   1.463       .  S
O299        C302   1.267       .  A
O300        C302   1.267       .  A
C302        C653   1.465       .  S
O303        C308   1.266       .  A
O304        C306   1.271       .  A
C305        O307   1.269       .  A
C305        C753   1.486       .  S
C306        C433   1.468       .  S
C308        C993   1.487       .  S
Fe309       O325   2.081       .  S
Fe309       O315   2.053       .  S
Fe309       O322   2.062       .  S
Fe309       O314   2.088       .  S
Fe309       O320   1.964       .  S
Fe310       O313   2.066       .  S
Fe310       O317   2.047       .  S
Fe310       O321   2.072       .  S
Fe310       O326   2.050       .  S
Fe310       O320   1.958       .  S
Fe311       O329   2.062       .  S
Fe311       O316   2.090       .  S
Fe311       O323   2.087       .  S
Fe311       O312   2.055       .  S
Fe311       O320   1.974       .  S
O312        C319   1.270       .  A
O313        C327   1.272       .  A
O314        C319   1.278       .  A
O315        C318   1.263       .  A
O316        C328   1.273       .  A
O317        C330   1.266       .  A
C318        O323   1.270       .  A
C318        C353   1.482       .  S
C319        C924   1.481       .  S
O321        C324   1.268       .  A
O322        C324   1.267       .  A
C324       C1104   1.484       .  S
O325        C330   1.274       .  A
O326        C328   1.265       .  A
C327        O329   1.269       .  A
C327        C404   1.477       .  S
C328        C573   1.485       .  S
C330        C944   1.489       .  S
Fe331       O347   2.049       .  S
Fe331       O337   2.061       .  S
Fe331       O344   2.067       .  S
Fe331       O336   2.048       .  S
Fe331       O342   1.964       .  S
Fe332       O335   2.046       .  S
Fe332       O339   2.070       .  S
Fe332       O343   2.041       .  S
Fe332       O348   2.058       .  S
Fe332       O342   1.966       .  S
Fe333       O351   2.090       .  S
Fe333       O338   2.065       .  S
Fe333       O345   2.057       .  S
Fe333       O334   2.098       .  S
Fe333       O342   1.974       .  S
O334        C341   1.274       .  A
O335        C349   1.264       .  A
O336        C341   1.265       .  A
O337        C340   1.269       .  A
O338        C350   1.269       .  A
O339        C352   1.268       .  A
C340        O345   1.267       .  A
C340       C1044   1.472       .  S
C341        C364   1.488       .  S
O343        C346   1.264       .  A
O344        C346   1.269       .  A
C346       C1053   1.472       .  S
O347        C352   1.265       .  A
O348        C350   1.269       .  A
C349        O351   1.274       .  A
C349       C1304   1.491       .  S
C350        C464   1.472       .  S
C352        C604   1.469       .  S
C353        C354   1.411       .  A
C353        C358   1.406       .  A
C354        C355   1.403       .  A
C354       Br370   1.920       .  S
C355        C356   1.403       .  A
C355        H359   1.083       .  S
C356        C360   1.483       .  S
C356        C357   1.407       .  A
C357        C358   1.402       .  A
C357       Br369   1.918       .  S
C358        H361   1.083       .  S
C360        C362   1.399       .  A
C360        C366   1.408       .  A
C362        C363   1.398       .  A
C362        H367   1.084       .  S
C363        C364   1.418       .  A
C363       Br371   1.923       .  S
C364        C365   1.407       .  A
C365        C366   1.407       .  A
C365        H368   1.083       .  S
C366       Br372   1.916       .  S
C373        C374   1.415       .  A
C373        C378   1.409       .  A
C374        C375   1.397       .  A
C374       Br390   1.923       .  S
C375        C376   1.400       .  A
C375        H379   1.084       .  S
C376        C380   1.475       .  S
C376        C377   1.405       .  A
C377        C378   1.398       .  A
C377       Br389   1.919       .  S
C378        H381   1.083       .  S
C380        C382   1.404       .  A
C380        C386   1.410       .  A
C382        C383   1.401       .  A
C382        H387   1.083       .  S
C383        C384   1.406       .  A
C383       Br391   1.918       .  S
C384        C385   1.399       .  A
C385        C386   1.395       .  A
C385        H388   1.084       .  S
C386       Br392   1.921       .  S
C393        C394   1.416       .  A
C393        C398   1.404       .  A
C394        C395   1.399       .  A
C394       Br410   1.922       .  S
C395        C396   1.400       .  A
C395        H399   1.083       .  S
C396        C400   1.470       .  S
C396        C397   1.407       .  A
C397        C398   1.394       .  A
C397       Br409   1.921       .  S
C398        H401   1.084       .  S
C400        C402   1.402       .  A
C400        C406   1.405       .  A
C402        C403   1.402       .  A
C402        H407   1.083       .  S
C403        C404   1.414       .  A
C403       Br411   1.919       .  S
C404        C405   1.402       .  A
C405        C406   1.389       .  A
C405        H408   1.077       .  S
C406       Br412   1.923       .  S
C413        C414   1.416       .  A
C413        C418   1.407       .  A
C414        C415   1.405       .  A
C414       Br430   1.920       .  S
C415        C416   1.402       .  A
C415        H419   1.083       .  S
C416        C420   1.484       .  S
C416        C417   1.407       .  A
C417        C418   1.400       .  A
C417       Br429   1.919       .  S
C418        H421   1.083       .  S
C420        C422   1.406       .  A
C420        C426   1.407       .  A
C422        C423   1.408       .  A
C422        H427   1.083       .  S
C423        C424   1.411       .  A
C423       Br431   1.917       .  S
C424        C425   1.405       .  A
C425        C426   1.396       .  A
C425        H428   1.084       .  S
C426       Br432   1.920       .  S
C433        C434   1.406       .  A
C433        C438   1.402       .  A
C434        C435   1.396       .  A
C434       Br450   1.919       .  S
C435        C436   1.403       .  A
C435        H439   1.083       .  S
C436        C440   1.485       .  S
C436        C437   1.413       .  A
C437        C438   1.403       .  A
C437       Br449   1.919       .  S
C438        H441   1.083       .  S
C440        C442   1.402       .  A
C440        C446   1.413       .  A
C442        C443   1.394       .  A
C442        H447   1.084       .  S
C443        C444   1.410       .  A
C443       Br451   1.920       .  S
C444        C445   1.404       .  A
C445        C446   1.406       .  A
C445        H448   1.083       .  S
C446       Br452   1.918       .  S
C453        C454   1.413       .  A
C453        C458   1.404       .  A
C454        C455   1.402       .  A
C454       Br470   1.920       .  S
C455        C456   1.403       .  A
C455        H459   1.083       .  S
C456        C460   1.474       .  S
C456        C457   1.409       .  A
C457        C458   1.392       .  A
C457       Br469   1.923       .  S
C458        H461   1.084       .  S
C460        C462   1.401       .  A
C460        C466   1.407       .  A
C462        C463   1.394       .  A
C462        H467   1.084       .  S
C463        C464   1.410       .  A
C463       Br471   1.922       .  S
C464        C465   1.405       .  A
C465        C466   1.400       .  A
C465        H468   1.083       .  S
C466       Br472   1.917       .  S
C473        C474   1.415       .  A
C473        C478   1.407       .  A
C474        C475   1.401       .  A
C474       Br490   1.920       .  S
C475        C476   1.401       .  A
C475        H479   1.084       .  S
C476        C480   1.477       .  S
C476        C477   1.406       .  A
C477        C478   1.398       .  A
C477       Br489   1.919       .  S
C478        H481   1.084       .  S
C480        C482   1.402       .  A
C480        C486   1.405       .  A
C482        C483   1.405       .  A
C482        H487   1.083       .  S
C483        C484   1.418       .  A
C483       Br491   1.921       .  S
C484        C485   1.408       .  A
C485        C486   1.394       .  A
C485        H488   1.083       .  S
C486       Br492   1.921       .  S
C493        C494   1.412       .  A
C493        C498   1.408       .  A
C494        C495   1.395       .  A
C494       Br510   1.921       .  S
C495        C496   1.403       .  A
C495        H499   1.084       .  S
C496        C500   1.481       .  S
C496        C497   1.408       .  A
C497        C498   1.403       .  A
C497       Br509   1.918       .  S
C498        H501   1.083       .  S
C500        C502   1.404       .  A
C500        C506   1.409       .  A
C502        C503   1.398       .  A
C502        H507   1.083       .  S
C503        C504   1.411       .  A
C503       Br511   1.922       .  S
C504        C505   1.406       .  A
C505        C506   1.399       .  A
C505        H508   1.083       .  S
C506       Br512   1.919       .  S
C513        C514   1.420   1_565  A
C513        C518   1.409   1_565  A
C514        C515   1.401       .  A
C514       Br530   1.923   1_545  S
C515        C516   1.400       .  A
C515        H519   1.079       .  S
C516        C520   1.479       .  S
C516        C517   1.405       .  A
C517        C518   1.399       .  A
C517       Br529   1.919       .  S
C518        H521   1.079   1_545  S
C520        C522   1.401       .  A
C520        C526   1.406       .  A
C522        C523   1.400       .  A
C522        H527   1.084       .  S
C523        C524   1.416       .  A
C523       Br531   1.921       .  S
C524        C525   1.406       .  A
C525        C526   1.399       .  A
C525        H528   1.083       .  S
C526       Br532   1.918       .  S
C533        C534   1.419       .  A
C533        C538   1.410       .  A
C534        C535   1.397       .  A
C534       Br550   1.923       .  S
C535        C536   1.397       .  A
C535        H539   1.084       .  S
C536        C540   1.462       .  S
C536        C537   1.401       .  A
C537        C538   1.390       .  A
C537       Br549   1.921       .  S
C538        H541   1.083       .  S
C540        C542   1.399       .  A
C540        C546   1.403       .  A
C542        C543   1.392       .  A
C542        H547   1.084       .  S
C543        C544   1.411   1_554  A
C543       Br551   1.922       .  S
C544        C545   1.405       .  A
C545        C546   1.396   1_556  A
C545        H548   1.082       .  S
C546       Br552   1.918       .  S
C553        C554   1.413       .  A
C553        C558   1.404       .  A
C554        C555   1.395       .  A
C554       Br570   1.921       .  S
C555        C556   1.398       .  A
C555        H559   1.083       .  S
C556        C560   1.461       .  S
C556        C557   1.404       .  A
C557        C558   1.392       .  A
C557       Br569   1.921       .  S
C558        H561   1.084       .  S
C560        C562   1.399       .  A
C560        C566   1.402       .  A
C562        C563   1.393       .  A
C562        H567   1.084       .  S
C563        C564   1.411       .  A
C563       Br571   1.923       .  S
C564        C565   1.405       .  A
C565        C566   1.393       .  A
C565        H568   1.084       .  S
C566       Br572   1.918       .  S
C573        C574   1.418       .  A
C573        C578   1.407       .  A
C574        C575   1.399       .  A
C574       Br590   1.922       .  S
C575        C576   1.398       .  A
C575        H579   1.084       .  S
C576        C580   1.476       .  S
C576        C577   1.406       .  A
C577        C578   1.400       .  A
C577       Br589   1.917       .  S
C578        H581   1.083       .  S
C580        C582   1.398       .  A
C580        C586   1.403       .  A
C582        C583   1.400       .  A
C582        H587   1.084       .  S
C583        C584   1.422       .  A
C583       Br591   1.923       .  S
C584        C585   1.412       .  A
C585        C586   1.399       .  A
C585        H588   1.083       .  S
C586       Br592   1.919       .  S
C593        C594   1.414   1_655  A
C593        C598   1.408       .  A
C594        C595   1.397       .  A
C594       Br610   1.921       .  S
C595        C596   1.400       .  A
C595        H599   1.084       .  S
C596        C600   1.470       .  S
C596        C597   1.403       .  A
C597        C598   1.396   1_455  A
C597       Br609   1.918       .  S
C598        H601   1.084       .  S
C600        C602   1.401       .  A
C600        C606   1.405       .  A
C602        C603   1.395       .  A
C602        H607   1.084       .  S
C603        C604   1.409       .  A
C603       Br611   1.922       .  S
C604        C605   1.405       .  A
C605        C606   1.399       .  A
C605        H608   1.084       .  S
C606       Br612   1.918       .  S
C613        C614   1.417       .  A
C613        C618   1.408       .  A
C614        C615   1.394       .  A
C614       Br630   1.924       .  S
C615        C616   1.400       .  A
C615        H619   1.084       .  S
C616        C620   1.479       .  S
C616        C617   1.408       .  A
C617        C618   1.403       .  A
C617       Br629   1.918       .  S
C618        H621   1.083       .  S
C620        C622   1.402       .  A
C620        C626   1.409       .  A
C622        C623   1.397       .  A
C622        H627   1.084       .  S
C623        C624   1.412       .  A
C623       Br631   1.920       .  S
C624        C625   1.406       .  A
C625        C626   1.400       .  A
C625        H628   1.083       .  S
C626       Br632   1.919       .  S
C633        C634   1.414       .  A
C633        C638   1.405       .  A
C634        C635   1.396       .  A
C634       Br650   1.923       .  S
C635        C636   1.402       .  A
C635        H639   1.084       .  S
C636        C640   1.475       .  S
C636        C637   1.408       .  A
C637        C638   1.394       .  A
C637       Br649   1.921       .  S
C638        H641   1.084       .  S
C640        C642   1.400       .  A
C640        C646   1.409       .  A
C642        C643   1.395   1_554  A
C642        H647   1.083       .  S
C643        C644   1.414       .  A
C643       Br651   1.922       .  S
C644        C645   1.405   1_556  A
C645        C646   1.395       .  A
C645        H648   1.083       .  S
C646       Br652   1.922       .  S
C653        C654   1.410       .  A
C653        C658   1.402       .  A
C654        C655   1.395       .  A
C654       Br670   1.921       .  S
C655        C656   1.400       .  A
C655        H659   1.084       .  S
C656        C660   1.467       .  S
C656        C657   1.406       .  A
C657        C658   1.395       .  A
C657       Br669   1.919       .  S
C658        H661   1.084       .  S
C660        C662   1.400       .  A
C660        C666   1.406       .  A
C662        C663   1.397       .  A
C662        H667   1.083       .  S
C663        C664   1.410       .  A
C663       Br671   1.919       .  S
C664        C665   1.401       .  A
C665        C666   1.393       .  A
C665        H668   1.084       .  S
C666       Br672   1.920       .  S
C673        C674   1.419       .  A
C673        C678   1.408       .  A
C674        C675   1.400       .  A
C674       Br690   1.923       .  S
C675        C676   1.399       .  A
C675        H679   1.083       .  S
C676        C680   1.475       .  S
C676        C677   1.404       .  A
C677        C678   1.397       .  A
C677       Br689   1.919       .  S
C678        H681   1.083       .  S
C680        C682   1.402       .  A
C680        C686   1.405       .  A
C682        C683   1.397       .  A
C682        H687   1.084       .  S
C683        C684   1.411       .  A
C683       Br691   1.922       .  S
C684        C685   1.407       .  A
C685        C686   1.400       .  A
C685        H688   1.083       .  S
C686       Br692   1.918       .  S
C693        C694   1.416       .  A
C693        C698   1.403       .  A
C694        C695   1.397       .  A
C694       Br710   1.923       .  S
C695        C696   1.398       .  A
C695        H699   1.084       .  S
C696        C700   1.469       .  S
C696        C697   1.407       .  A
C697        C698   1.395       .  A
C697       Br709   1.920       .  S
C698        H701   1.084       .  S
C700        C702   1.400       .  A
C700        C706   1.405       .  A
C702        C703   1.397   1_455  A
C702        H707   1.084       .  S
C703        C704   1.414       .  A
C703       Br711   1.922       .  S
C704        C705   1.405   1_655  A
C705        C706   1.393       .  A
C705        H708   1.083   1_455  S
C706       Br712   1.919       .  S
C713        C714   1.420       .  A
C713        C718   1.409       .  A
C714        C715   1.398       .  A
C714       Br730   1.923       .  S
C715        C716   1.398   1_554  A
C715        H719   1.084       .  S
C716        C720   1.472       .  S
C716        C717   1.406       .  A
C717        C718   1.393   1_556  A
C717       Br729   1.922       .  S
C718        H721   1.083       .  S
C720        C722   1.401       .  A
C720        C726   1.407       .  A
C722        C723   1.395       .  A
C722        H727   1.084       .  S
C723        C724   1.412       .  A
C723       Br731   1.921       .  S
C724        C725   1.403       .  A
C725        C726   1.397       .  A
C725        H728   1.083       .  S
C726       Br732   1.918       .  S
C733        C734   1.413       .  A
C733        C738   1.407       .  A
C734        C735   1.395       .  A
C734       Br750   1.923       .  S
C735        C736   1.401       .  A
C735        H739   1.084       .  S
C736        C740   1.471       .  S
C736        C737   1.404       .  A
C737        C738   1.396       .  A
C737       Br749   1.918       .  S
C738        H741   1.083       .  S
C740        C742   1.402       .  A
C740        C746   1.404       .  A
C742        C743   1.399       .  A
C742        H747   1.084       .  S
C743        C744   1.413       .  A
C743       Br751   1.921       .  S
C744        C745   1.405       .  A
C745        C746   1.393       .  A
C745        H748   1.084       .  S
C746       Br752   1.920       .  S
C753        C754   1.418       .  A
C753        C758   1.409       .  A
C754        C755   1.399       .  A
C754       Br770   1.923       .  S
C755        C756   1.398       .  A
C755        H759   1.084       .  S
C756        C760   1.470       .  S
C756        C757   1.402       .  A
C757        C758   1.395       .  A
C757       Br769   1.919       .  S
C758        H761   1.083       .  S
C760        C762   1.401       .  A
C760        C766   1.405       .  A
C762        C763   1.397       .  A
C762        H767   1.083       .  S
C763        C764   1.409       .  A
C763       Br771   1.921       .  S
C764        C765   1.404       .  A
C765        C766   1.398       .  A
C765        H768   1.083       .  S
C766       Br772   1.918       .  S
C773        C774   1.407       .  A
C773        C778   1.404       .  A
C774        C775   1.396   1_556  A
C774       Br790   1.921   1_556  S
C775        C776   1.402   1_565  A
C775        H779   1.085       .  S
C776        C780   1.472       .  S
C776        C777   1.406   1_554  A
C777        C778   1.399   1_545  A
C777       Br789   1.917       .  S
C778        H781   1.085       .  S
C780        C782   1.400       .  A
C780        C786   1.406       .  A
C782        C783   1.401       .  A
C782        H787   1.082       .  S
C783        C784   1.416       .  A
C783       Br791   1.920       .  S
C784        C785   1.407       .  A
C785        C786   1.394       .  A
C785        H788   1.083       .  S
C786       Br792   1.922   1_554  S
C793        C794   1.416       .  A
C793        C798   1.408       .  A
C794        C795   1.400       .  A
C794       Br810   1.921       .  S
C795        C796   1.401       .  A
C795        H799   1.084       .  S
C796        C800   1.481       .  S
C796        C797   1.408       .  A
C797        C798   1.400       .  A
C797       Br809   1.919       .  S
C798        H801   1.083       .  S
C800        C802   1.403   1_565  A
C800        C806   1.408   1_565  A
C802        C803   1.401       .  A
C802        H807   1.083       .  S
C803        C804   1.412       .  A
C803       Br811   1.921       .  S
C804        C805   1.406       .  A
C805        C806   1.399       .  A
C805        H808   1.083       .  S
C806       Br812   1.920   1_545  S
C813        C814   1.414       .  A
C813        C818   1.406       .  A
C814        C815   1.393       .  A
C814       Br830   1.924       .  S
C815        C816   1.398       .  A
C815        H819   1.084       .  S
C816        C820   1.474       .  S
C816        C817   1.407       .  A
C817        C818   1.403       .  A
C817       Br829   1.916       .  S
C818        H821   1.083       .  S
C820        C822   1.400       .  A
C820        C826   1.406       .  A
C822        C823   1.396       .  A
C822        H827   1.084       .  S
C823        C824   1.414       .  A
C823       Br831   1.922       .  S
C824        C825   1.408       .  A
C825        C826   1.400       .  A
C825        H828   1.083       .  S
C826       Br832   1.918       .  S
C833        C834   1.412       .  A
C833        C838   1.403       .  A
C834        C835   1.399       .  A
C834       Br850   1.920       .  S
C835        C836   1.400   1_554  A
C835        H839   1.083       .  S
C836        C840   1.469       .  S
C836        C837   1.405       .  A
C837        C838   1.392   1_556  A
C837       Br849   1.917       .  S
C838        H841   1.084       .  S
C840        C842   1.399       .  A
C840        C846   1.405       .  A
C842        C843   1.397       .  A
C842        H847   1.084       .  S
C843        C844   1.413       .  A
C843       Br851   1.921       .  S
C844        C845   1.404       .  A
C845        C846   1.395       .  A
C845        H848   1.084       .  S
C846       Br852   1.919       .  S
C853        C854   1.405       .  A
C853        C858   1.401       .  A
C854        C855   1.398       .  A
C854       Br870   1.919       .  S
C855        C856   1.402       .  A
C855        H859   1.083       .  S
C856        C860   1.470       .  S
C856        C857   1.406       .  A
C857        C858   1.397       .  A
C857       Br869   1.919       .  S
C858        H861   1.084       .  S
C860        C862   1.403       .  A
C860        C866   1.407       .  A
C862        C863   1.400       .  A
C862        H867   1.083       .  S
C863        C864   1.405       .  A
C863       Br871   1.918       .  S
C864        C865   1.400       .  A
C865        C866   1.394       .  A
C865        H868   1.084       .  S
C866       Br872   1.920       .  S
C873        C874   1.420       .  A
C873        C878   1.408       .  A
C874        C875   1.399       .  A
C874       Br890   1.924       .  S
C875        C876   1.400       .  A
C875        H879   1.084       .  S
C876        C880   1.478       .  S
C876        C877   1.405       .  A
C877        C878   1.399       .  A
C877       Br889   1.918       .  S
C878        H881   1.083       .  S
C880        C882   1.401       .  A
C880        C886   1.404       .  A
C882        C883   1.402       .  A
C882        H887   1.084       .  S
C883        C884   1.419       .  A
C883       Br891   1.922       .  S
C884        C885   1.411       .  A
C885        C886   1.397       .  A
C885        H888   1.083       .  S
C886       Br892   1.920       .  S
C893        C894   1.417   1_565  A
C893        C898   1.408   1_565  A
C894        C895   1.403       .  A
C894       Br910   1.921   1_545  S
C895        C896   1.403       .  A
C895        H899   1.083       .  S
C896        C900   1.487       .  S
C896        C897   1.409       .  A
C897        C898   1.400       .  A
C897       Br909   1.921       .  S
C898        H901   1.083   1_545  S
C900        C902   1.404       .  A
C900        C906   1.407       .  A
C902        C903   1.404       .  A
C902        H907   1.083       .  S
C903        C904   1.419       .  A
C903       Br911   1.922       .  S
C904        C905   1.410       .  A
C905        C906   1.397       .  A
C905        H908   1.083       .  S
C906       Br912   1.920       .  S
C913        C914   1.414       .  A
C913        C918   1.409       .  A
C914        C915   1.395   1_554  A
C914       Br930   1.918       .  S
C915        C916   1.399       .  A
C915        H919   1.084       .  S
C916        C920   1.478       .  S
C916        C917   1.406   1_556  A
C917        C918   1.403       .  A
C917       Br929   1.918       .  S
C918        H921   1.083       .  S
C920        C922   1.400       .  A
C920        C926   1.407       .  A
C922        C923   1.399       .  A
C922        H927   1.084       .  S
C923        C924   1.416       .  A
C923       Br931   1.920       .  S
C924        C925   1.405       .  A
C925        C926   1.398       .  A
C925        H928   1.084       .  S
C926       Br932   1.918       .  S
C933        C934   1.410       .  A
C933        C938   1.402       .  A
C934        C935   1.400       .  A
C934       Br950   1.919       .  S
C935        C936   1.402       .  A
C935        H939   1.083       .  S
C936        C940   1.470       .  S
C936        C937   1.407       .  A
C937        C938   1.393       .  A
C937       Br949   1.920       .  S
C938        H941   1.084       .  S
C940        C942   1.394       .  A
C940        C946   1.403       .  A
C942        C943   1.390       .  A
C942        H947   1.085       .  S
C943        C944   1.420       .  A
C943       Br951   1.919       .  S
C944        C945   1.412       .  A
C945        C946   1.402       .  A
C945        H948   1.083       .  S
C946       Br952   1.916       .  S
C953        C954   1.416       .  A
C953        C958   1.408       .  A
C954        C955   1.399       .  A
C954       Br970   1.922       .  S
C955        C956   1.400       .  A
C955        H959   1.083       .  S
C956        C960   1.473       .  S
C956        C957   1.404       .  A
C957        C958   1.397       .  A
C957       Br969   1.918       .  S
C958        H961   1.083       .  S
C960        C962   1.398       .  A
C960        C966   1.407       .  A
C962        C963   1.398       .  A
C962        H967   1.083       .  S
C963        C964   1.415       .  A
C963       Br971   1.922       .  S
C964        C965   1.405       .  A
C965        C966   1.399       .  A
C965        H968   1.083       .  S
C966       Br972   1.919       .  S
C973        C974   1.411       .  A
C973        C978   1.405       .  A
C974        C975   1.393       .  A
C974       Br990   1.921       .  S
C975        C976   1.400       .  A
C975        H979   1.084   1_455  S
C976        C980   1.478   1_554  S
C976        C977   1.410       .  A
C977        C978   1.404       .  A
C977       Br989   1.917   1_554  S
C978        H981   1.083       .  S
C980        C982   1.407   1_455  A
C980        C986   1.409       .  A
C982        C983   1.404       .  A
C982        H987   1.083   1_556  S
C983        C984   1.407       .  A
C983       Br991   1.918       .  S
C984        C985   1.401       .  A
C985        C986   1.393   1_655  A
C985        H988   1.084   1_655  S
C986       Br992   1.922       .  S
C993        C994   1.416       .  A
C993        C998   1.408       .  A
C994        C995   1.400       .  A
C994      Br1010   1.923       .  S
C995        C996   1.403       .  A
C995        H999   1.084       .  S
C996       C1000   1.483       .  S
C996        C997   1.407       .  A
C997        C998   1.401       .  A
C997      Br1009   1.918       .  S
C998       H1001   1.083       .  S
C1000      C1002   1.404   1_655  A
C1000      C1006   1.406       .  A
C1002      C1003   1.405       .  A
C1002      H1007   1.083   1_455  S
C1003      C1004   1.415       .  A
C1003     Br1011   1.918       .  S
C1004      C1005   1.407       .  A
C1005      C1006   1.396   1_455  A
C1005      H1008   1.083       .  S
C1006     Br1012   1.920       .  S
C1013      C1014   1.423       .  A
C1013      C1018   1.409       .  A
C1014      C1015   1.397       .  A
C1014     Br1030   1.926       .  S
C1015      C1016   1.399       .  A
C1015      H1019   1.084       .  S
C1016      C1020   1.491       .  S
C1016      C1017   1.411       .  A
C1017      C1018   1.407       .  A
C1017     Br1029   1.918       .  S
C1018      H1021   1.083       .  S
C1020      C1022   1.403       .  A
C1020      C1026   1.412       .  A
C1022      C1023   1.402       .  A
C1022      H1027   1.084       .  S
C1023      C1024   1.416       .  A
C1023     Br1031   1.922       .  S
C1024      C1025   1.406       .  A
C1025      C1026   1.403       .  A
C1025      H1028   1.084       .  S
C1026     Br1032   1.920       .  S
C1033      C1034   1.414       .  A
C1033      C1038   1.403       .  A
C1034      C1035   1.398   1_554  A
C1034     Br1050   1.922       .  S
C1035      C1036   1.400       .  A
C1035      H1039   1.083       .  S
C1036      C1040   1.473       .  S
C1036      C1037   1.408       .  A
C1037      C1038   1.395   1_556  A
C1037     Br1049   1.921       .  S
C1038      H1041   1.084       .  S
C1040      C1042   1.401       .  A
C1040      C1046   1.406       .  A
C1042      C1043   1.398       .  A
C1042      H1047   1.084       .  S
C1043      C1044   1.413       .  A
C1043     Br1051   1.922       .  S
C1044      C1045   1.404       .  A
C1045      C1046   1.395       .  A
C1045      H1048   1.084       .  S
C1046     Br1052   1.920       .  S
C1053      C1054   1.414       .  A
C1053      C1058   1.407       .  A
C1054      C1055   1.392       .  A
C1054     Br1070   1.923       .  S
C1055      C1056   1.398       .  A
C1055      H1059   1.084       .  S
C1056      C1060   1.464       .  S
C1056      C1057   1.402       .  A
C1057      C1058   1.397       .  A
C1057     Br1069   1.917       .  S
C1058      H1061   1.083       .  S
C1060      C1062   1.399       .  A
C1060      C1066   1.401       .  A
C1062      C1063   1.399       .  A
C1062      H1067   1.084       .  S
C1063      C1064   1.416       .  A
C1063     Br1071   1.920       .  S
C1064      C1065   1.408       .  A
C1065      C1066   1.391       .  A
C1065      H1068   1.083       .  S
C1066     Br1072   1.921       .  S
C1073      C1074   1.420       .  A
C1073      C1078   1.408       .  A
C1074      C1075   1.401       .  A
C1074     Br1090   1.923       .  S
C1075      C1076   1.400       .  A
C1075      H1079   1.084       .  S
C1076      C1080   1.481       .  S
C1076      C1077   1.406       .  A
C1077      C1078   1.399       .  A
C1077     Br1089   1.919       .  S
C1078      H1081   1.083       .  S
C1080      C1082   1.402       .  A
C1080      C1086   1.406       .  A
C1082      C1083   1.400       .  A
C1082      H1087   1.084       .  S
C1083      C1084   1.414       .  A
C1083     Br1091   1.918       .  S
C1084      C1085   1.410       .  A
C1085      C1086   1.401       .  A
C1085      H1088   1.083       .  S
C1086     Br1092   1.918       .  S
C1093      C1094   1.414       .  A
C1093      C1098   1.407       .  A
C1094      C1095   1.406       .  A
C1094     Br1110   1.919       .  S
C1095      C1096   1.405   1_545  A
C1095      H1099   1.083       .  S
C1096      C1100   1.484       .  S
C1096      C1097   1.406   1_565  A
C1097      C1098   1.397       .  A
C1097     Br1109   1.920   1_545  S
C1098      H1101   1.084       .  S
C1100      C1102   1.405       .  A
C1100      C1106   1.407       .  A
C1102      C1103   1.403       .  A
C1102      H1107   1.083       .  S
C1103      C1104   1.413       .  A
C1103     Br1111   1.920       .  S
C1104      C1105   1.406       .  A
C1105      C1106   1.399       .  A
C1105      H1108   1.083       .  S
C1106     Br1112   1.918       .  S
C1113      C1114   1.411   1_556  A
C1113      C1118   1.405       .  A
C1114      C1115   1.397       .  A
C1114     Br1130   1.922       .  S
C1115      C1116   1.401       .  A
C1115      H1119   1.084       .  S
C1116      C1120   1.472       .  S
C1116      C1117   1.405   1_554  A
C1117      C1118   1.397       .  A
C1117     Br1129   1.917       .  S
C1118      H1121   1.083       .  S
C1120      C1122   1.401       .  A
C1120      C1126   1.408   1_545  A
C1122      C1123   1.402   1_545  A
C1122      H1127   1.084       .  S
C1123      C1124   1.414       .  A
C1123     Br1131   1.920       .  S
C1124      C1125   1.402       .  A
C1125      C1126   1.391       .  A
C1125      H1128   1.082       .  S
C1126     Br1132   1.924   1_564  S
C1133      C1134   1.409   1_556  A
C1133      C1138   1.400   1_556  A
C1134      C1135   1.396       .  A
C1134     Br1150   1.921   1_554  S
C1135      C1136   1.400       .  A
C1135      H1139   1.084       .  S
C1136      C1140   1.463       .  S
C1136      C1137   1.405       .  A
C1137      C1138   1.392       .  A
C1137     Br1149   1.920       .  S
C1138      H1141   1.084   1_554  S
C1140      C1142   1.398       .  A
C1140      C1146   1.404       .  A
C1142      C1143   1.389       .  A
C1142      H1147   1.084       .  S
C1143      C1144   1.411       .  A
C1143     Br1151   1.923       .  S
C1144      C1145   1.404       .  A
C1145      C1146   1.397       .  A
C1145      H1148   1.084       .  S
C1146     Br1152   1.917       .  S
C1153      C1154   1.413       .  A
C1153      C1158   1.404       .  A
C1154      C1155   1.395       .  A
C1154     Br1170   1.922       .  S
C1155      C1156   1.399       .  A
C1155      H1159   1.084       .  S
C1156      C1160   1.457       .  S
C1156      C1157   1.402       .  A
C1157      C1158   1.388       .  A
C1157     Br1169   1.921       .  S
C1158      H1161   1.084       .  S
C1160      C1162   1.398       .  A
C1160      C1166   1.399       .  A
C1162      C1163   1.399       .  A
C1162      H1167   1.083       .  S
C1163      C1164   1.419       .  A
C1163     Br1171   1.921       .  S
C1164      C1165   1.408       .  A
C1165      C1166   1.383       .  A
C1165      H1168   1.081       .  S
C1166     Br1172   1.924       .  S
C1173      C1174   1.414       .  A
C1173      C1178   1.409       .  A
C1174      C1175   1.401       .  A
C1174     Br1190   1.919       .  S
C1175      C1176   1.402       .  A
C1175      H1179   1.083       .  S
C1176      C1180   1.477       .  S
C1176      C1177   1.405       .  A
C1177      C1178   1.398       .  A
C1177     Br1189   1.919       .  S
C1178      H1181   1.083       .  S
C1180      C1182   1.400       .  A
C1180      C1186   1.406       .  A
C1182      C1183   1.398       .  A
C1182      H1187   1.084       .  S
C1183      C1184   1.413       .  A
C1183     Br1191   1.915       .  S
C1184      C1185   1.407       .  A
C1185      C1186   1.401       .  A
C1185      H1188   1.083       .  S
C1186     Br1192   1.917       .  S
C1193      C1194   1.416       .  A
C1193      C1198   1.409       .  A
C1194      C1195   1.406       .  A
C1194     Br1210   1.920       .  S
C1195      C1196   1.404   1_455  A
C1195      H1199   1.083   1_455  S
C1196      C1200   1.480       .  S
C1196      C1197   1.403   1_655  A
C1197      C1198   1.395       .  A
C1197     Br1209   1.919   1_455  S
C1198      H1201   1.083       .  S
C1200      C1202   1.399       .  A
C1200      C1206   1.404       .  A
C1202      C1203   1.401       .  A
C1202      H1207   1.084       .  S
C1203      C1204   1.422       .  A
C1203     Br1211   1.924       .  S
C1204      C1205   1.412       .  A
C1205      C1206   1.401       .  A
C1205      H1208   1.083       .  S
C1206     Br1212   1.918       .  S
C1213      C1214   1.413       .  A
C1213      C1218   1.404       .  A
C1214      C1215   1.404   1_655  A
C1214     Br1230   1.919       .  S
C1215      C1216   1.405       .  A
C1215      H1219   1.083       .  S
C1216      C1220   1.481       .  S
C1216      C1217   1.408   1_455  A
C1217      C1218   1.395       .  A
C1217     Br1229   1.921   1_554  S
C1218      H1221   1.084       .  S
C1220      C1222   1.404   1_554  A
C1220      C1226   1.408       .  A
C1222      C1223   1.404       .  A
C1222      H1227   1.083       .  S
C1223      C1224   1.415       .  A
C1223     Br1231   1.920       .  S
C1224      C1225   1.405       .  A
C1225      C1226   1.395   1_556  A
C1225      H1228   1.084       .  S
C1226     Br1232   1.921       .  S
C1233      C1234   1.418       .  A
C1233      C1238   1.405       .  A
C1234      C1235   1.397       .  A
C1234     Br1250   1.924       .  S
C1235      C1236   1.399       .  A
C1235      H1239   1.084       .  S
C1236      C1240   1.476       .  S
C1236      C1237   1.407       .  A
C1237      C1238   1.401       .  A
C1237     Br1249   1.917       .  S
C1238      H1241   1.083       .  S
C1240      C1242   1.403       .  A
C1240      C1246   1.406       .  A
C1242      C1243   1.405       .  A
C1242      H1247   1.083       .  S
C1243      C1244   1.413       .  A
C1243     Br1251   1.919       .  S
C1244      C1245   1.404       .  A
C1245      C1246   1.393       .  A
C1245      H1248   1.084       .  S
C1246     Br1252   1.921       .  S
C1253      C1254   1.416       .  A
C1253      C1258   1.406   1_556  A
C1254      C1255   1.401   1_556  A
C1254     Br1270   1.921       .  S
C1255      C1256   1.401       .  A
C1255      H1259   1.083       .  S
C1256      C1260   1.473       .  S
C1256      C1257   1.405       .  A
C1257      C1258   1.395       .  A
C1257     Br1269   1.920       .  S
C1258      H1261   1.084       .  S
C1260      C1262   1.401       .  A
C1260      C1266   1.406       .  A
C1262      C1263   1.397       .  A
C1262      H1267   1.084       .  S
C1263      C1264   1.409       .  A
C1263     Br1271   1.921       .  S
C1264      C1265   1.404       .  A
C1265      C1266   1.400       .  A
C1265      H1268   1.083       .  S
C1266     Br1272   1.917       .  S
C1273      C1274   1.411       .  A
C1273      C1278   1.404       .  A
C1274      C1275   1.399       .  A
C1274     Br1290   1.920       .  S
C1275      C1276   1.401       .  A
C1275      H1279   1.084       .  S
C1276      C1280   1.475       .  S
C1276      C1277   1.407       .  A
C1277      C1278   1.398       .  A
C1277     Br1289   1.918       .  S
C1278      H1281   1.083       .  S
C1280      C1282   1.399       .  A
C1280      C1286   1.406       .  A
C1282      C1283   1.400       .  A
C1282      H1287   1.084       .  S
C1283      C1284   1.418       .  A
C1283     Br1291   1.922       .  S
C1284      C1285   1.406       .  A
C1285      C1286   1.397       .  A
C1285      H1288   1.083       .  S
C1286     Br1292   1.918       .  S
C1293      C1294   1.419       .  A
C1293      C1298   1.408       .  A
C1294      C1295   1.400       .  A
C1294     Br1310   1.924       .  S
C1295      C1296   1.402       .  A
C1295      H1299   1.084       .  S
C1296      C1300   1.485       .  S
C1296      C1297   1.408       .  A
C1297      C1298   1.398       .  A
C1297     Br1309   1.920       .  S
C1298      H1301   1.083       .  S
C1300      C1302   1.401       .  A
C1300      C1306   1.409       .  A
C1302      C1303   1.399       .  A
C1302      H1307   1.083       .  S
C1303      C1304   1.420       .  A
C1303     Br1311   1.924       .  S
C1304      C1305   1.408       .  A
C1305      C1306   1.400       .  A
C1305      H1308   1.083       .  S
C1306     Br1312   1.920       .  S
