geometry optimzed in LAMMPS
_audit_creation_date              2020-12-01 
_audit_creation_method            'lammps2cif' 
_symmetry_space_group_name_H-M    'P1' 
_symmetry_Int_Tables_number       1 
_symmetry_cell_setting            triclinic 
loop_ 
_symmetry_equiv_pos_as_xyz 
  x,y,z 
_cell_length_a                    38.87814638 
_cell_length_b                    38.517081702074435 
_cell_length_c                    43.13327107049601 
_cell_angle_alpha                 90.47137469680115 
_cell_angle_beta                  89.97717749888531 
_cell_angle_gamma                 90.74654641811317 
loop_ 
_atom_site_label 
_atom_site_type_symbol 
_atom_site_fract_x 
_atom_site_fract_y 
_atom_site_fract_z 
_atom_site_charge 
O1          O  0.41668899  0.92746598  0.45041652    -0.84800
O2          O  0.46082020  0.92597130  0.39809462    -0.81800
C3          C  0.48964766  0.91325911  0.40396238     0.98700
O4          O  0.49148739  0.88214668  0.41316506    -0.81900
O5          O  0.46521800  0.81574341  0.43506357    -0.84500
C6          C  0.45168861  0.81702639  0.46194684     1.03200
O7          O  0.43000240  0.83996374  0.46783175    -0.77300
O8          O  0.37992791  0.88712681  0.46381250    -0.77500
C9          C  0.39461090  0.91571496  0.46946662     1.03200
O10         O  0.36235196  0.90955806  0.40929066    -0.84800
O11         O  0.40683977  0.90168512  0.36151188    -0.81800
C12         C  0.42947899  0.88793474  0.34467279     0.98700
O13         O  0.45444032  0.87146925  0.35618809    -0.81900
O14         O  0.42797207  0.80976217  0.37787508    -0.84500
C15         C  0.40841193  0.79011497  0.39332375     1.03200
O16         O  0.39781662  0.79977539  0.41949186    -0.77300
O17         O  0.35141242  0.85387387  0.41091039    -0.77400
C18         C  0.34132745  0.88463179  0.40669840     1.03100
Cr19       Cr  0.41272804  0.91270940  0.40566055     1.93700
Cr20       Cr  0.45714342  0.84682442  0.39730945     1.93200
Cr21       Cr  0.39217089  0.84662294  0.43841752     1.39100
O22         O  0.42081972  0.86864502  0.41356916    -1.22500
O23         O  0.41342701  0.59348026  0.05865552    -0.84800
O24         O  0.45726218  0.59213881  0.11030540    -0.81800
C25         C  0.48642824  0.60550121  0.10515123     0.98700
O26         O  0.48933587  0.63722019  0.09790061    -0.81900
O27         O  0.46479533  0.70313820  0.07573146    -0.84500
C28         C  0.45240068  0.70068750  0.04835122     1.03200
O29         O  0.43101106  0.67696008  0.04244762    -0.77300
O30         O  0.37637779  0.63281793  0.04610700    -0.77500
C31         C  0.39156302  0.60512156  0.03980622     1.03200
O32         O  0.35876497  0.61152474  0.10036791    -0.84800
O33         O  0.40373736  0.61511286  0.14782880    -0.81800
C34         C  0.42639341  0.62844533  0.16516501     0.98700
O35         O  0.45126707  0.64640864  0.15439440    -0.81900
O36         O  0.42597516  0.70793025  0.13299089    -0.84500
C37         C  0.40858439  0.72834229  0.11685303     1.03200
O38         O  0.40071111  0.71978482  0.08959735    -0.77300
O39         O  0.35194254  0.66788182  0.09919653    -0.77400
C40         C  0.33999505  0.63775638  0.10418036     1.03100
Cr41       Cr  0.40933294  0.60628245  0.10351006     1.93700
Cr42       Cr  0.45539325  0.67184952  0.11362386     1.93200
Cr43       Cr  0.39219516  0.67289013  0.07127814     1.39100
O44         O  0.41911138  0.65027223  0.09658671    -1.22500
O45         O  0.34892829  0.59328438  0.28729682    -0.84800
O46         O  0.28550604  0.57035682  0.30550604    -0.81800
C47         C  0.28475688  0.53756438  0.30352476     0.98700
O48         O  0.30143864  0.51927287  0.32254126    -0.81900
O49         O  0.35337104  0.50471071  0.36763680    -0.84500
C50         C  0.38307490  0.50335143  0.35582405     1.03200
O51         O  0.39308182  0.52792984  0.33875040    -0.77300
O52         O  0.39828227  0.59378621  0.31220519    -0.77500
C53         C  0.38115028  0.59650662  0.28748856     1.03200
O54         O  0.34967537  0.64448035  0.33506726    -0.84800
O55         O  0.28864247  0.61865755  0.35684905    -0.81800
C56         C  0.26612711  0.59806296  0.36698573     0.98700
O57         O  0.27099543  0.56568762  0.36625201    -0.81900
O58         O  0.32663060  0.55641053  0.40633842    -0.84500
C59         C  0.35719120  0.55812597  0.41656922     1.03200
O60         O  0.38217284  0.55948110  0.39785279    -0.77300
O61         O  0.38309089  0.62376506  0.37126657    -0.77400
C62         C  0.37045442  0.64910608  0.35716371     1.03100
Cr63       Cr  0.31989278  0.60400563  0.32325220     1.93700
Cr64       Cr  0.31516488  0.53910717  0.36401276     1.93200
Cr65       Cr  0.38539593  0.57587668  0.35417733     1.39100
O66         O  0.34033649  0.57300228  0.34698615    -1.22500
O67         O  0.12167068  0.59123582  0.22705500    -0.84800
O68         O  0.18648705  0.57247918  0.20815116    -0.81800
C69         C  0.18734878  0.53964983  0.20873842     0.98700
O70         O  0.16897682  0.52165794  0.19014242    -0.81900
O71         O  0.11670491  0.50766597  0.14483065    -0.84500
C72         C  0.08703801  0.50703032  0.15683545     1.03200
O73         O  0.07750382  0.53178667  0.17381620    -0.77300
O74         O  0.07369336  0.59682910  0.20066251    -0.77500
C75         C  0.08968819  0.59580594  0.22611445     1.03200
O76         O  0.12121285  0.64599099  0.18258428    -0.84800
O77         O  0.18218405  0.62239845  0.15929963    -0.81800
C78         C  0.20375100  0.60239190  0.14717437     0.98700
O79         O  0.19924276  0.56987460  0.14839810    -0.81900
O80         O  0.14573176  0.56047417  0.10701311    -0.84500
C81         C  0.11558664  0.56362203  0.09644525     1.03200
O82         O  0.09003542  0.56254066  0.11442803    -0.77300
O83         O  0.09187757  0.62682573  0.14244943    -0.77400
C84         C  0.10295816  0.65162567  0.15899719     1.03100
Cr85       Cr  0.15130970  0.60558441  0.19232716     1.93700
Cr86       Cr  0.15569087  0.54212926  0.14918983     1.93200
Cr87       Cr  0.08667436  0.57906375  0.15859825     1.39100
O88         O  0.13111316  0.57548345  0.16680779    -1.22500
O89         O  0.05648452  0.92172417  0.05679320    -0.84800
O90         O  0.01919239  0.92649383  0.11163998    -0.81800
C91         C  0.98928801  0.91463474  0.10777177     0.98700
O92         O  0.98515971  0.88287680  0.10058548    -0.81900
O93         O  0.00531069  0.81484998  0.08098624    -0.84500
C94         C  0.01500960  0.81315590  0.05279593     1.03200
O95         O  0.03993988  0.83150527  0.04346241    -0.77300
O96         O  0.09099110  0.88051565  0.04165224    -0.77500
C97         C  0.07632187  0.90900775  0.03668646     1.03200
O98         O  0.11553855  0.90602333  0.09286641    -0.84800
O99         O  0.07545787  0.90362285  0.14413792    -0.81800
C100        C  0.05321655  0.89387966  0.16350983     0.98700
O101        O  0.02668695  0.87658327  0.15526723    -0.81900
O102        O  0.04830853  0.81155917  0.13523972    -0.84500
C103        C  0.06541834  0.79005332  0.11946180     1.03200
O104        O  0.07341016  0.79697206  0.09191065    -0.77300
O105        O  0.12279143  0.85031038  0.09512577    -0.77400
C106        C  0.13511547  0.88079090  0.09752040     1.03100
Cr107      Cr  0.06551546  0.91094471  0.10073170     1.93700
Cr108      Cr  0.01897831  0.84796137  0.11614137     1.93200
Cr109      Cr  0.07980568  0.84175310  0.07017568     1.39100
O110        O  0.05438644  0.86674910  0.09567302    -1.22500
O111        O  0.05260096  0.60288816  0.45757468    -0.84800
O112        O  0.00691017  0.59928310  0.40588394    -0.81800
C113        C  0.98021310  0.61754941  0.40435716     0.98700
O114        O  0.98172809  0.65001720  0.40839700    -0.81900
O115        O  0.01161803  0.71083111  0.43249057    -0.84500
C116        C  0.02114269  0.70963333  0.46073662     1.03200
O117        O  0.04610954  0.69070275  0.46865290    -0.77300
O118        O  0.09540678  0.63824946  0.46474831    -0.77500
C119        C  0.07651216  0.61434181  0.47487591     1.03200
O120        O  0.10911925  0.61132615  0.41223473    -0.84800
O121        O  0.06177429  0.61181111  0.36622162    -0.81800
C122        C  0.04376882  0.62857480  0.34740653     0.98700
O123        O  0.02494733  0.65326750  0.35610154    -0.81900
O124        O  0.05513169  0.71350055  0.37694609    -0.84500
C125        C  0.07292248  0.73369935  0.39365813     1.03200
O126        O  0.08006764  0.72481048  0.42068407    -0.77300
O127        O  0.12076330  0.66745070  0.41008034    -0.77400
C128        C  0.12953838  0.63632173  0.40574667     1.03100
Cr129      Cr  0.05703644  0.61005264  0.41138612     1.93700
Cr130      Cr  0.02105758  0.67995475  0.39534845     1.93200
Cr131      Cr  0.08296778  0.67830139  0.43902876     1.39100
O132        O  0.05301656  0.65592133  0.41501962    -1.22500
O133        O  0.35322020  0.92377825  0.22259487    -0.84800
O134        O  0.28953040  0.94534246  0.20401522    -0.81800
C135        C  0.28997779  0.97793904  0.20783563     0.98700
O136        O  0.30922116  0.99699974  0.19106349    -0.81900
O137        O  0.36222591  0.01329136  0.14626755    -0.84500
C138        C  0.39215232  0.01269037  0.15776023     1.03200
O139        O  0.40090596  0.98698471  0.17346971    -0.77300
O140        O  0.40247153  0.92092552  0.19745877    -0.77500
C141        C  0.38523551  0.91907301  0.22235618     1.03200
O142        O  0.35439435  0.87317929  0.17489575    -0.84800
O143        O  0.29449804  0.89973137  0.15106943    -0.81800
C144        C  0.27256490  0.92074868  0.14126114     0.98700
O145        O  0.27768248  0.95297699  0.14542588    -0.81900
O146        O  0.33214191  0.96434970  0.10547225    -0.84500
C147        C  0.36201710  0.96057405  0.09437010     1.03200
O148        O  0.38785676  0.95902843  0.11221543    -0.77300
O149        O  0.38543161  0.89418133  0.13692160    -0.77400
C150        C  0.37380497  0.86879599  0.15188057     1.03100
Cr151      Cr  0.32455287  0.91303411  0.18629281     1.93700
Cr152      Cr  0.32228480  0.97958778  0.14857923     1.93200
Cr153      Cr  0.39071950  0.94075930  0.15580386     1.39100
O154        O  0.34611082  0.94459304  0.16371997    -1.22500
O155        O  0.11102519  0.91077687  0.29832849    -0.84800
O156        O  0.16555101  0.95837977  0.29374360    -0.81800
C157        C  0.18674896  0.98209260  0.30152682     0.98700
O158        O  0.18765212  0.99318237  0.32951542    -0.81900
O159        O  0.12658258  0.02404962  0.35359592    -0.84500
C160        C  0.09476886  0.02482488  0.35976630     1.03200
O161        O  0.07690566  0.99734215  0.36019087    -0.77300
O162        O  0.07854513  0.95493094  0.30648274    -0.77500
C163        C  0.09050485  0.93252095  0.28800273     1.03200
O164        O  0.13999278  0.88269008  0.35114746    -0.84800
O165        O  0.19856095  0.92362349  0.34145381    -0.81800
C166        C  0.20631249  0.93038100  0.36899286     0.98700
O167        O  0.18744806  0.95001451  0.38469603    -0.81900
O168        O  0.13033797  0.98062674  0.40655009    -0.84500
C169        C  0.10743691  0.95941298  0.41569315     1.03200
O170        O  0.09014955  0.94075785  0.39705333    -0.77300
O171        O  0.08488880  0.89495770  0.34887830    -0.77400
C172        C  0.10882315  0.87374021  0.35453799     1.03100
Cr173      Cr  0.15208187  0.92139201  0.32308563     1.93700
Cr174      Cr  0.15606469  0.98457004  0.36667405     1.93200
Cr175      Cr  0.08606719  0.94749698  0.35219627     1.39100
O176        O  0.13138641  0.95175272  0.34757984    -1.22500
O177        O  0.57268326  0.44087208  0.20842769    -0.84800
O178        O  0.57103609  0.47343665  0.15140114    -0.81800
C179        C  0.58293732  0.50407550  0.15078522     0.98700
O180        O  0.61381458  0.50984191  0.15888288    -0.81900
O181        O  0.67950182  0.49349744  0.18377266    -0.84500
C182        C  0.67899477  0.48883900  0.21299074     1.03200
O183        O  0.66091596  0.46462392  0.22431009    -0.77300
O184        O  0.61414829  0.41042906  0.22889501    -0.77500
C185        C  0.58531571  0.42502084  0.23111231     1.03200
O186        O  0.59369568  0.37844544  0.17844546    -0.84800
O187        O  0.59784110  0.41267974  0.12321467    -0.81800
C188        C  0.60880068  0.43292119  0.10247918     0.98700
O189        O  0.62369472  0.46124664  0.10974233    -0.81900
O190        O  0.68409680  0.44114156  0.13497168    -0.84500
C191        C  0.70614745  0.42807186  0.15246860     1.03200
O192        O  0.70006109  0.42569379  0.18102683    -0.77300
O193        O  0.64958635  0.37440041  0.17998688    -0.77400
C194        C  0.62040734  0.36023708  0.17623554     1.03100
Cr195      Cr  0.58698894  0.42767454  0.16598083     1.93700
Cr196      Cr  0.64896592  0.47409411  0.14907972     1.93200
Cr197      Cr  0.65418984  0.42042489  0.20135758     1.39100
O198        O  0.62978671  0.44145073  0.17249566    -1.22500
O199        O  0.88670458  0.44127614  0.30836574    -0.84800
O200        O  0.88079905  0.50518981  0.34127165    -0.81800
C201        C  0.87000423  0.52737539  0.36071277     0.98700
O202        O  0.84137922  0.52231764  0.37385526    -0.81900
O203        O  0.78819674  0.50904514  0.32949789    -0.84500
C204        C  0.77259253  0.49197024  0.30830533     1.03200
O205        O  0.77360503  0.45915125  0.30727832    -0.77300
O206        O  0.83638031  0.43874918  0.28529196    -0.77500
C207        C  0.86870788  0.43737877  0.28417617     1.03200
O208        O  0.87472477  0.40593174  0.36540342    -0.84800
O209        O  0.87366246  0.46731608  0.39668250    -0.81800
C210        C  0.85026370  0.46365913  0.41661370     0.98700
O211        O  0.81891805  0.46450975  0.40832593    -0.81900
O212        O  0.76048894  0.45743272  0.37016125    -0.84500
C213        C  0.75593470  0.42500873  0.36777638     1.03200
O214        O  0.77819557  0.40677786  0.35467774    -0.77300
O215        O  0.83862489  0.38551531  0.33054247    -0.77400
C216        C  0.86073451  0.38067263  0.35131185     1.03100
Cr217      Cr  0.87500158  0.45513336  0.35206124     1.93700
Cr218      Cr  0.80429199  0.48595935  0.36847299     1.93200
Cr219      Cr  0.80849918  0.42538920  0.32170382     1.39100
O220        O  0.82945457  0.45565364  0.34700188    -1.22500
O221        O  0.87696973  0.38213343  0.04176390    -0.84800
O222        O  0.92635239  0.33201041  0.04321695    -0.81800
C223        C  0.95263578  0.31585013  0.05208386     0.98700
O224        O  0.96224060  0.31716234  0.08037809    -0.81900
O225        O  0.98566543  0.38288176  0.09944114    -0.84500
C226        C  0.98393302  0.41496810  0.10494742     1.03200
O227        O  0.95508746  0.42901891  0.10757554    -0.77300
O228        O  0.91510545  0.42235424  0.05344951    -0.77500
C229        C  0.89278743  0.40983634  0.03500399     1.03200
O230        O  0.84774093  0.35561524  0.09808204    -0.84800
O231        O  0.89292186  0.30001084  0.09321398    -0.81800
C232        C  0.90128902  0.29409615  0.12074757     0.98700
O233        O  0.91917455  0.31584652  0.13564979    -0.81900
O234        O  0.94294246  0.37944289  0.15469596    -0.84500
C235        C  0.91814687  0.39885740  0.16268688     1.03200
O236        O  0.89793325  0.41112480  0.14293999    -0.77300
O237        O  0.85736317  0.41096284  0.09209971    -0.77400
C238        C  0.83777174  0.38668240  0.10063751     1.03100
Cr239      Cr  0.88808761  0.34444347  0.07105512     1.93700
Cr240      Cr  0.94988830  0.35038287  0.11569153     1.93200
Cr241      Cr  0.90746388  0.41478441  0.09845331     1.39100
O242        O  0.91569430  0.36981662  0.09497371    -1.22500
O243        O  0.90678499  0.16631178  0.47511068    -0.84800
O244        O  0.93167762  0.22736171  0.45068740    -0.81800
C245        C  0.96407802  0.22561354  0.45247498     0.98700
O246        O  0.98108583  0.20772906  0.43290323    -0.81900
O247        O  0.99196867  0.15453800  0.38742291    -0.84500
C248        C  0.99659666  0.12628057  0.40084305     1.03200
O249        O  0.97432192  0.11552185  0.42003717    -0.77300
O250        O  0.91236398  0.11392524  0.45489819    -0.77500
C251        C  0.90634091  0.13364080  0.47783987     1.03200
O252        O  0.85615105  0.16237053  0.42931874    -0.84800
O253        O  0.88189281  0.22137964  0.40071066    -0.81800
C254        C  0.90266438  0.24262460  0.38838246     0.98700
O255        O  0.93419836  0.23695026  0.39089439    -0.81900
O256        O  0.93586172  0.17735027  0.35297453    -0.84500
C257        C  0.93022927  0.14571417  0.34537956     1.03200
O258        O  0.93367708  0.12187744  0.36510150    -0.77300
O259        O  0.87494169  0.12098819  0.39906390    -0.77400
C260        C  0.85049257  0.13656148  0.41205465     1.03100
Cr261      Cr  0.89679328  0.19236104  0.43677489     1.93700
Cr262      Cr  0.95831065  0.19206572  0.39297325     1.93200
Cr263      Cr  0.92432962  0.12219637  0.41047327     1.39100
O264        O  0.92649742  0.16840184  0.41391439    -1.22500
O265        O  0.58758526  0.09190224  0.30445258    -0.84800
O266        O  0.58736215  0.02766890  0.33358654    -0.81800
C267        C  0.59501055  0.00373782  0.35193848     0.98700
O268        O  0.62367449  0.00484781  0.36551269    -0.81900
O269        O  0.67659852  0.01646793  0.31994041    -0.84500
C270        C  0.69537078  0.03382411  0.30126965     1.03200
O271        O  0.69903568  0.06643189  0.30463579    -0.77300
O272        O  0.63883821  0.09342035  0.28248852    -0.77500
C273        C  0.60655034  0.09616108  0.28087957     1.03200
O274        O  0.59961890  0.12439741  0.36285094    -0.84800
O275        O  0.59759939  0.06238215  0.39252221    -0.81800
C276        C  0.62234297  0.06435875  0.41148941     0.98700
O277        O  0.65291426  0.05843821  0.40274817    -0.81900
O278        O  0.70954997  0.06141767  0.36353864    -0.84500
C279        C  0.71565840  0.09314362  0.36846036     1.03200
O280        O  0.69551759  0.11495994  0.35693229    -0.77300
O281        O  0.63764861  0.14368015  0.32970274    -0.77400
C282        C  0.61343305  0.14918498  0.34843495     1.03100
Cr283      Cr  0.59670088  0.07596376  0.34771089     1.93700
Cr284      Cr  0.66387773  0.03761611  0.36122951     1.93200
Cr285      Cr  0.66603296  0.10210644  0.32050880     1.39100
O286        O  0.64179581  0.07190290  0.34269494    -1.22500
O287        O  0.89379350  0.09947400  0.20223207    -0.84800
O288        O  0.89411844  0.03479670  0.17260264    -0.81800
C289        C  0.88643831  0.01046898  0.15405282     0.98700
O290        O  0.85856615  0.01138255  0.13915627    -0.81900
O291        O  0.80302145  0.02016894  0.18207599    -0.84500
C292        C  0.78339451  0.03664619  0.20052719     1.03200
O293        O  0.78223703  0.06948987  0.20000478    -0.77300
O294        O  0.84273515  0.09590196  0.22420617    -0.77500
C295        C  0.87473360  0.10120927  0.22598029     1.03200
O296        O  0.88167194  0.13082387  0.14366677    -0.84800
O297        O  0.88592580  0.06867923  0.11379731    -0.81800
C298        C  0.86184713  0.07185470  0.09433813     0.98700
O299        O  0.83101892  0.06543472  0.10224258    -0.81900
O300        O  0.77307115  0.06613396  0.13944119    -0.84500
C301        C  0.76731328  0.09814201  0.13868487     1.03200
O302        O  0.78819417  0.11930382  0.15079536    -0.77300
O303        O  0.84444609  0.14819074  0.17849558    -0.77400
C304        C  0.86641535  0.15475061  0.15786429     1.03100
Cr305      Cr  0.88535988  0.08270653  0.15869667     1.93700
Cr306      Cr  0.81834692  0.04306603  0.14248244     1.93200
Cr307      Cr  0.81623710  0.10576162  0.18646592     1.39100
O308        O  0.84024877  0.07698101  0.16310252    -1.22500
O309        O  0.56106028  0.35430109  0.47532463    -0.84800
O310        O  0.53645897  0.29445423  0.44809865    -0.81800
C311        C  0.50450862  0.29778449  0.45216980     0.98700
O312        O  0.48740169  0.31788887  0.43495846    -0.81900
O313        O  0.47643960  0.37660419  0.39708256    -0.84500
C314        C  0.47683486  0.40480346  0.41225309     1.03200
O315        O  0.50194355  0.41195095  0.43011519    -0.77300
O316        O  0.56865910  0.40639987  0.45659583    -0.77500
C317        C  0.56832879  0.38596890  0.47941683     1.03200
O318        O  0.61383200  0.35937195  0.42912511    -0.84800
O319        O  0.58445606  0.30400078  0.39845086    -0.81800
C320        C  0.56316747  0.28440218  0.38472047     0.98700
O321        O  0.53143810  0.29084665  0.38685406    -0.81900
O322        O  0.52649383  0.35325532  0.35418710    -0.84500
C323        C  0.53172045  0.38543887  0.34935141     1.03200
O324        O  0.53080715  0.40675708  0.37142019    -0.77300
O325        O  0.59515194  0.39594089  0.39500682    -0.77400
C326        C  0.61977566  0.38044640  0.40749165     1.03100
Cr327      Cr  0.57151344  0.33013773  0.43607928     1.93700
Cr328      Cr  0.50773969  0.33598483  0.39497360     1.93200
Cr329      Cr  0.54877715  0.40167300  0.41382746     1.39100
O330        O  0.54234720  0.35612307  0.41530645    -1.22500
O331        O  0.57041251  0.15207041  0.03176589    -0.84800
O332        O  0.54843386  0.21531839  0.05415004    -0.81800
C333        C  0.51593409  0.21279098  0.05388641     0.98700
O334        O  0.50033842  0.19356409  0.07326217    -0.81900
O335        O  0.49233037  0.14003405  0.11789965    -0.84500
C336        C  0.49087314  0.11061146  0.10473475     1.03200
O337        O  0.51454433  0.10178204  0.08633600    -0.77300
O338        O  0.57874556  0.10281898  0.05559117    -0.77500
C339        C  0.57822213  0.12035445  0.03078111     1.03200
O340        O  0.62574166  0.15298364  0.07462404    -0.84800
O341        O  0.60057568  0.21184606  0.10199008    -0.81800
C342        C  0.58063444  0.23194342  0.11624177     0.98700
O343        O  0.54860899  0.22691885  0.11383275    -0.81900
O344        O  0.54591836  0.17074823  0.15387327    -0.84500
C345        C  0.55055661  0.14004176  0.16323132     1.03200
O346        O  0.54869028  0.11484582  0.14419901    -0.77300
O347        O  0.60946394  0.12129486  0.11406682    -0.77400
C348        C  0.63275346  0.13475263  0.09779408     1.03100
Cr349      Cr  0.58404504  0.18144937  0.06755459     1.93700
Cr350      Cr  0.52389341  0.18107329  0.11301324     1.93200
Cr351      Cr  0.56221908  0.11350704  0.09918520     1.39100
O352        O  0.55639833  0.15838796  0.09284666    -1.22500
C353        C  0.48935512  0.27786511  0.47846974    -0.04800
C354        C  0.49228631  0.29233750  0.00857104    -0.01900
C355        C  0.49678079  0.27056871  0.03452006     0.03100
C356        C  0.49751891  0.23409987  0.03064755    -0.04800
C357        C  0.48937851  0.21964950  0.50136105    -0.01900
C358        C  0.48505153  0.24150460  0.47542794     0.03100
C359        C  0.49365738  0.32976189  0.01245989     0.37800
C360        C  0.48881487  0.18222715  0.49731021     0.37700
C361        C  0.47814125  0.22634245  0.44525871     0.36200
C362        C  0.50359082  0.28575583  0.06481964     0.36200
N363        N  0.47198283  0.21349048  0.42155509    -0.38700
N364        N  0.50909998  0.29791748  0.08896652    -0.38700
N365        N  0.48848925  0.15237086  0.49404130    -0.38100
N366        N  0.49454758  0.35962276  0.01566075    -0.38100
C367        C  0.73457487  0.11033864  0.12596475    -0.04800
C368        C  0.71548003  0.13516629  0.14272543    -0.01900
C369        C  0.68300558  0.14482557  0.13204140     0.03100
C370        C  0.66866214  0.12844828  0.10574872    -0.04800
C371        C  0.68792995  0.10455384  0.08832380    -0.01900
C372        C  0.72109529  0.09568419  0.09825299     0.03100
C373        C  0.72809102  0.14934444  0.17197991     0.37800
C374        C  0.67332391  0.08863709  0.06060065     0.37700
C375        C  0.74124415  0.07165613  0.07985238     0.36200
C376        C  0.66491371  0.17252864  0.14758592     0.36200
N377        N  0.75726545  0.05260739  0.06501920    -0.38700
N378        N  0.65153974  0.19544495  0.15984184    -0.38700
N379        N  0.66168965  0.07596307  0.03848971    -0.38100
N380        N  0.73806363  0.16049424  0.19535033    -0.38100
C381        C  0.57521344  0.25188821  0.36890412    -0.04800
C382        C  0.61051940  0.24721656  0.36181297    -0.01900
C383        C  0.62246846  0.21439164  0.35223614     0.03100
C384        C  0.60020072  0.18507862  0.35290622    -0.04800
C385        C  0.56446156  0.19048979  0.35630146    -0.01900
C386        C  0.55195328  0.22405420  0.36246255     0.03100
C387        C  0.63478280  0.27614027  0.36340156     0.37800
C388        C  0.54015658  0.16195287  0.35164358     0.37700
C389        C  0.51523226  0.22985384  0.36024640     0.36200
C390        C  0.65717725  0.21156264  0.34025953     0.36200
N391        N  0.48605283  0.23454600  0.35749383    -0.38700
N392        N  0.68443659  0.20992985  0.32960726    -0.38700
N393        N  0.52066812  0.13933595  0.34787530    -0.38100
N394        N  0.65443664  0.29892996  0.36476965    -0.38100
C395        C  0.75986606  0.01922386  0.22308282    -0.04800
C396        C  0.77227931  0.01050307  0.25270084    -0.01900
C397        C  0.74961794  0.00954864  0.27847795     0.03100
C398        C  0.71449793  0.01768843  0.27488106    -0.04800
C399        C  0.70136461  0.02121510  0.24455244    -0.01900
C400        C  0.72392696  0.02190664  0.21876291     0.03100
C401        C  0.80887023  0.00574958  0.25709953     0.37800
C402        C  0.66487492  0.02668116  0.24010824     0.37700
C403        C  0.71042019  0.02800711  0.18796150     0.36200
C404        C  0.76293594  0.00236265  0.30902104     0.36200
N405        N  0.69946501  0.03271649  0.16342946    -0.38700
N406        N  0.77401533  0.99605655  0.33316605    -0.38700
N407        N  0.63574804  0.03082945  0.23635591    -0.38100
N408        N  0.83810424  0.00197570  0.26051880    -0.38100
C409        C  0.61459765  0.07634444  0.44360060    -0.04800
C410        C  0.59459061  0.05578076  0.46389253    -0.01900
C411        C  0.58295918  0.06966020  0.99255930     0.03100
C412        C  0.59034658  0.10473503  0.00075234    -0.04800
C413        C  0.61116214  0.12489349  0.48048938    -0.01900
C414        C  0.62269575  0.11086787  0.45209733     0.03100
C415        C  0.58554324  0.02044896  0.45497408     0.37800
C416        C  0.62176358  0.16003346  0.48892983     0.37700
C417        C  0.64098801  0.13298904  0.43055057     0.36200
C418        C  0.56284461  0.04788360  0.01318284     0.36200
N419        N  0.65493772  0.15105979  0.41326803    -0.38700
N420        N  0.54700613  0.03031129  0.02966638    -0.38700
N421        N  0.63032169  0.18802733  0.49552342    -0.38100
N422        N  0.57833115  0.99226064  0.44782624    -0.38100
C423        C  0.59069413  0.10785369  0.25150975    -0.04800
C424        C  0.60066228  0.14023758  0.23899430    -0.01900
C425        C  0.58406208  0.15312444  0.21245641     0.03100
C426        C  0.55971181  0.13237108  0.19624214    -0.04800
C427        C  0.54778635  0.10134927  0.21034618    -0.01900
C428        C  0.56312489  0.08920346  0.23785723     0.03100
C429        C  0.62758323  0.16095626  0.25380086     0.37800
C430        C  0.51760334  0.08353226  0.19831214     0.37700
C431        C  0.55099009  0.05712894  0.25178156     0.36200
C432        C  0.59070730  0.18864217  0.20360756     0.36200
N433        N  0.54137216  0.03158686  0.26299001    -0.38700
N434        N  0.59621782  0.21757223  0.19847396    -0.38700
N435        N  0.49284999  0.06945466  0.18989723    -0.38100
N436        N  0.64917253  0.17759092  0.26522808    -0.38100
C437        C  0.89545335  0.11777717  0.00788311    -0.04800
C438        C  0.91170089  0.08785936  0.01935184    -0.01900
C439        C  0.89935977  0.07151188  0.04650076     0.03100
C440        C  0.87068039  0.08481297  0.06269105    -0.04800
C441        C  0.85326990  0.11350094  0.05024123    -0.01900
C442        C  0.86569310  0.13007304  0.02326520     0.03100
C443        C  0.94128752  0.07376025  0.00334018     0.37800
C444        C  0.82225714  0.12610514  0.06488839     0.37700
C445        C  0.84666898  0.15896090  0.51069150     0.36200
C446        C  0.91497554  0.03960159  0.05661473     0.36200
N447        N  0.83135214  0.18192279  0.50077474    -0.38700
N448        N  0.92724678  0.01373574  0.06392023    -0.38700
N449        N  0.79708231  0.13620221  0.07577167    -0.38100
N450        N  0.96471902  0.06222949  0.99052653    -0.38100
C451        C  0.88986406  0.11260102  0.25591370    -0.04800
C452        C  0.88109006  0.14521980  0.26855525    -0.01900
C453        C  0.89531573  0.15660990  0.29702059     0.03100
C454        C  0.91851316  0.13541834  0.31339308    -0.04800
C455        C  0.92722627  0.10248737  0.30035087    -0.01900
C456        C  0.91343500  0.09162239  0.27149654     0.03100
C457        C  0.85749309  0.16745309  0.25209574     0.37800
C458        C  0.94973993  0.07894901  0.31651792     0.37700
C459        C  0.92272510  0.05831158  0.25808693     0.36200
C460        C  0.88417013  0.18939547  0.31004457     0.36200
N461        N  0.93003103  0.03184898  0.24719778    -0.38700
N462        N  0.87491579  0.21560316  0.32004982    -0.38700
N463        N  0.96725474  0.05951091  0.32912019    -0.38100
N464        N  0.83873040  0.18543617  0.23923335    -0.38100
C465        C  0.74791148  0.10391271  0.38552924    -0.04800
C466        C  0.75506603  0.13911213  0.39342014    -0.01900
C467        C  0.78725592  0.14888589  0.40596429     0.03100
C468        C  0.81432417  0.12477325  0.40667799    -0.04800
C469        C  0.80626731  0.08921756  0.40265848    -0.01900
C470        C  0.77269388  0.07872805  0.39401825     0.03100
C471        C  0.72976134  0.16594370  0.38986905     0.37800
C472        C  0.83185031  0.06316802  0.40938056     0.37700
C473        C  0.76365455  0.04212315  0.39597684     0.36200
C474        C  0.79158112  0.18336181  0.41944947     0.36200
N475        N  0.75642502  0.01302421  0.39841832    -0.38700
N476        N  0.79446406  0.21044470  0.43106817    -0.38700
N477        N  0.85213901  0.04236206  0.41484814    -0.38100
N478        N  0.71111501  0.18895637  0.38806901    -0.38100
C479        C  0.89090147  0.26037879  0.13443980    -0.04800
C480        C  0.91465412  0.24063189  0.15155894    -0.01900
C481        C  0.90673155  0.20584451  0.15901514     0.03100
C482        C  0.87452900  0.19127048  0.15071912    -0.04800
C483        C  0.84969338  0.21193426  0.13625539    -0.01900
C484        C  0.85802708  0.24608832  0.12755069     0.03100
C485        C  0.94773941  0.25542781  0.16050255     0.37800
C486        C  0.81546689  0.19823859  0.12994338     0.37700
C487        C  0.83243467  0.26639442  0.11147992     0.36200
C488        C  0.93158855  0.18506922  0.17544856     0.36200
N489        N  0.81185075  0.28220539  0.09857685    -0.38700
N490        N  0.95139966  0.16849524  0.18855588    -0.38700
N491        N  0.78772849  0.18857085  0.12488135    -0.38100
N492        N  0.97405394  0.26729649  0.16777410    -0.38100
C493        C  0.97994149  0.24634538  0.47811861    -0.04800
C494        C  0.97678177  0.23358206  0.00864333    -0.01900
C495        C  0.97250515  0.25676615  0.03402434     0.03100
C496        C  0.97003768  0.29288885  0.02883048    -0.04800
C497        C  0.97783201  0.30565092  0.49894295    -0.01900
C498        C  0.98382347  0.28244504  0.47398368     0.03100
C499        C  0.97454754  0.19640562  0.01351954     0.37800
C500        C  0.97741652  0.34267285  0.49331905     0.37700
C501        C  0.99144625  0.29580007  0.44343245     0.36200
C502        C  0.96718029  0.24300435  0.06484435     0.36200
N503        N  0.99812873  0.30689961  0.41930532    -0.38700
N504        N  0.96314685  0.23166703  0.08935047    -0.38700
N505        N  0.97680925  0.37216334  0.48857085    -0.38100
N506        N  0.97271720  0.16677662  0.01758298    -0.38100
C507        C  0.88540043  0.42730079  0.25450877    -0.04800
C508        C  0.88291087  0.39240051  0.24419524    -0.01900
C509        C  0.89652709  0.38250414  0.21519623     0.03100
C510        C  0.91170392  0.40755483  0.19571792    -0.04800
C511        C  0.91567661  0.44215024  0.20653925    -0.01900
C512        C  0.90329429  0.45177747  0.23621044     0.03100
C513        C  0.86615365  0.36627467  0.26319598     0.37800
C514        C  0.93229063  0.46787240  0.18700112     0.37700
C515        C  0.90845432  0.48691546  0.24760444     0.36200
C516        C  0.89380542  0.34655500  0.20514799     0.36200
N517        N  0.91284495  0.51499664  0.25658403    -0.38700
N518        N  0.89150032  0.31761309  0.19797620    -0.38700
N519        N  0.94556285  0.48841595  0.17145628    -0.38100
N520        N  0.85301077  0.34459337  0.27754763    -0.38100
C521        C  0.86091504  0.45738674  0.44952089    -0.04800
C522        C  0.89627173  0.45857264  0.45861687    -0.01900
C523        C  0.90642819  0.44542702  0.48762896     0.03100
C524        C  0.88209158  0.42840499  0.00658175    -0.04800
C525        C  0.84675686  0.42912923  0.99814082    -0.01900
C526        C  0.83633959  0.44716598  0.47169098     0.03100
C527        C  0.92256423  0.47398678  0.43892633     0.37800
C528        C  0.82066444  0.41019303  0.01544568     0.37700
C529        C  0.80072794  0.45742413  0.46879011     0.36200
C530        C  0.94224127  0.44794806  0.49705408     0.36200
N531        N  0.77251037  0.46641924  0.46698769    -0.38700
N532        N  0.97077006  0.45032448  0.50453587    -0.38700
N533        N  0.79964045  0.39447244  0.02841624    -0.38100
N534        N  0.94373395  0.48622426  0.42344177    -0.38100
C535        C  0.89137733  0.27602666  0.37363958    -0.04800
C536        C  0.85615873  0.28399333  0.37011803    -0.01900
C537        C  0.84606662  0.31817329  0.36313797     0.03100
C538        C  0.87109461  0.34456205  0.35829788    -0.04800
C539        C  0.90611389  0.33568804  0.35764625    -0.01900
C540        C  0.91615833  0.30143399  0.36411187     0.03100
C541        C  0.83030929  0.25661014  0.37004401     0.37800
C542        C  0.93188117  0.36156095  0.34908362     0.37700
C543        C  0.95169612  0.29222257  0.35831045     0.45800
C544        C  0.80969898  0.32600339  0.36146463     0.36200
N545        N  0.97989281  0.28495057  0.35296715    -0.38700
N546        N  0.78055888  0.33156359  0.36016081    -0.38700
N547        N  0.95238087  0.38218079  0.34225867    -0.38100
N548        N  0.80938452  0.23506824  0.36831398    -0.38100
C549        C  0.72272390  0.40897521  0.37767314    -0.04800
C550        C  0.69672673  0.40213982  0.35557847    -0.01900
C551        C  0.66383010  0.39044988  0.36520504     0.03100
C552        C  0.65591555  0.38780635  0.39717518    -0.04800
C553        C  0.68301823  0.39155367  0.41896224    -0.01900
C554        C  0.71660198  0.40045399  0.40890418     0.03100
C555        C  0.70439818  0.40562207  0.32281148     0.37800
C556        C  0.67657547  0.38652241  0.45175882     0.37700
C557        C  0.74539137  0.39674508  0.42978553     0.36200
C558        C  0.63949240  0.37778075  0.34218790     0.36200
N559        N  0.76823978  0.39165178  0.44622022    -0.38700
N560        N  0.62086427  0.36644376  0.32368421    -0.38700
N561        N  0.67140923  0.38247737  0.47791942    -0.38100
N562        N  0.71075533  0.40801232  0.29669134    -0.38100
C563        C  0.73978128  0.41698909  0.13944934    -0.04800
C564        C  0.75844551  0.38937755  0.15269061    -0.01900
C565        C  0.78918157  0.37789944  0.13871208     0.03100
C566        C  0.80341548  0.39602270  0.11327139    -0.04800
C567        C  0.78644496  0.42601458  0.10230176    -0.01900
C568        C  0.75398049  0.43493701  0.11388660     0.03100
C569        C  0.74661291  0.37278720  0.18094286     0.37800
C570        C  0.80270994  0.44957380  0.08039681     0.37700
C571        C  0.73622096  0.46404554  0.10009576     0.36200
C572        C  0.80723801  0.34891717  0.15214282     0.36200
N573        N  0.72203454  0.48699516  0.08887498    -0.38700
N574        N  0.82132878  0.32578250  0.16312689    -0.38700
N575        N  0.81542366  0.46931348  0.06369476    -0.38100
N576        N  0.73747872  0.35948977  0.20352425    -0.38100
C577        C  0.70396046  0.50721684  0.23411631    -0.04800
C578        C  0.69356333  0.51776626  0.26411271    -0.01900
C579        C  0.71718871  0.51710837  0.28913689     0.03100
C580        C  0.75191403  0.50872603  0.28363773    -0.04800
C581        C  0.76344939  0.50615554  0.25265805    -0.01900
C582        C  0.73957775  0.50506198  0.22794030     0.03100
C583        C  0.65840455  0.52848461  0.26912534     0.37800
C584        C  0.79975875  0.50202681  0.24634326     0.37700
C585        C  0.75167887  0.49883772  0.19661794     0.36200
C586        C  0.70519055  0.52182435  0.32066976     0.36200
N587        N  0.76167832  0.49412306  0.17168870    -0.38700
N588        N  0.69558887  0.52539731  0.34588062    -0.38700
N589        N  0.82868058  0.49905586  0.24081890    -0.38100
N590        N  0.63037596  0.53723470  0.27315169    -0.38100
C591        C  0.59402784  0.26185127  0.13542703    -0.04800
C592        C  0.62787224  0.27549418  0.13140817    -0.01900
C593        C  0.63897064  0.30512185  0.14846924     0.03100
C594        C  0.61580985  0.32265813  0.16813014    -0.04800
C595        C  0.58450761  0.30593198  0.17580130    -0.01900
C596        C  0.57308014  0.27650905  0.15904620     0.03100
C597        C  0.65114348  0.26038922  0.10884651     0.37800
C598        C  0.56495540  0.31773179  0.20245314     0.37700
C599        C  0.54012959  0.26090686  0.16737588     0.36200
C600        C  0.67420754  0.31718280  0.14545276     0.36200
N601        N  0.51399477  0.24848532  0.17430295    -0.38700
N602        N  0.70253531  0.32587167  0.14213602    -0.38700
N603        N  0.54961307  0.32620496  0.22414090    -0.38100
N604        N  0.66987025  0.24851230  0.09091731    -0.38100
C605        C  0.60283227  0.42321106  0.06944426    -0.04800
C606        C  0.58780954  0.44641694  0.04840685    -0.01900
C607        C  0.57492552  0.43405475  0.01966631     0.03100
C608        C  0.57929062  0.39880032  0.01073456    -0.04800
C609        C  0.59750754  0.37659708  0.03083345    -0.01900
C610        C  0.60972103  0.38913596  0.05954511     0.03100
C611        C  0.58706842  0.48325935  0.05545830     0.37800
C612        C  0.60508459  0.34102961  0.52193265     0.37700
C613        C  0.63343261  0.36847300  0.07709991     0.36200
C614        C  0.55612814  0.45760133  0.00000157     0.36200
N615        N  0.65370593  0.35239525  0.08995906    -0.38700
N616        N  0.54102749  0.47644740  0.48447090    -0.38700
N617        N  0.61112841  0.31262782  0.51510720    -0.38100
N618        N  0.58721859  0.51283417  0.06042589    -0.38100
C619        C  0.56664267  0.42155984  0.26064239    -0.04800
C620        C  0.53516687  0.40289480  0.26225327    -0.01900
C621        C  0.52366393  0.38985188  0.29111392     0.03100
C622        C  0.54101585  0.39979324  0.31860017    -0.04800
C623        C  0.56811208  0.42478020  0.31679504    -0.01900
C624        C  0.58318898  0.43202867  0.28817493     0.03100
C625        C  0.51557419  0.39597896  0.23426273     0.37800
C626        C  0.58187478  0.44287948  0.34386558     0.37700
C627        C  0.61755481  0.44704552  0.28785424     0.36200
C628        C  0.49361470  0.36731060  0.29258656     0.36200
N629        N  0.64558543  0.45724402  0.28931036    -0.38700
N630        N  0.46962077  0.34927090  0.29375185    -0.38700
N631        N  0.59330666  0.45866862  0.36445148    -0.38100
N632        N  0.49985107  0.39079644  0.21188310    -0.38100
C633        C  0.02644424  0.10464507  0.39063656    -0.04800
C634        C  0.03515745  0.10196813  0.35854206    -0.01900
C635        C  0.05899296  0.07697224  0.34815403     0.03100
C636        C  0.07731697  0.05726226  0.36969469    -0.04800
C637        C  0.07258018  0.06400043  0.40178025    -0.01900
C638        C  0.04624220  0.08627976  0.41217601     0.03100
C639        C  0.01949765  0.12429785  0.33573679     0.37800
C640        C  0.09520419  0.04880184  0.42443869     0.37700
C641        C  0.04034246  0.09111786  0.44512222     0.36200
C642        C  0.06384229  0.07068315  0.31523211     0.36200
N643        N  0.03583165  0.09498986  0.47143701    -0.38700
N644        N  0.06751227  0.06558664  0.28896405    -0.38700
N645        N  0.11317682  0.03825771  0.44344663    -0.38100
N646        N  0.00773097  0.14229329  0.31729790    -0.38100
C647        C  0.41847843  0.03880147  0.14736922    -0.04800
C648        C  0.45208873  0.02796023  0.13911170    -0.01900
C649        C  0.47476918  0.05063089  0.12320007     0.03100
C650        C  0.46467999  0.08487677  0.11599047    -0.04800
C651        C  0.43159256  0.09600769  0.12525473    -0.01900
C652        C  0.40873896  0.07316532  0.14072774     0.03100
C653        C  0.46361559  0.99317418  0.14622349     0.37800
C654        C  0.42081173  0.13117359  0.11894244     0.37700
C655        C  0.37537111  0.08549807  0.15069399     0.36200
C656        C  0.50904935  0.03869136  0.11539425     0.36200
N657        N  0.34877713  0.09525998  0.15875724    -0.38700
N658        N  0.53629474  0.02902106  0.10922903    -0.38700
N659        N  0.41224874  0.15929517  0.11417668    -0.38100
N660        N  0.47311843  0.96560860  0.15199433    -0.38100
C661        C  0.21346261  0.99318007  0.27812311    -0.04800
C662        C  0.20454443  0.99591391  0.24641409    -0.01900
C663        C  0.23029959  0.99529024  0.22314986     0.03100
C664        C  0.26538118  0.99221247  0.23116774    -0.04800
C665        C  0.27461869  0.99348504  0.26277435    -0.01900
C666        C  0.24891376  0.99437381  0.28614354     0.03100
C667        C  0.16865285  0.99843285  0.23761040     0.37800
C668        C  0.31064227  0.99133323  0.27125620     0.37700
C669        C  0.25939054  0.99393870  0.31833756     0.36200
C670        C  0.22043808  0.99568527  0.19075645     0.36200
N671        N  0.26839531  0.99390249  0.34388409    -0.38700
N672        N  0.21225199  0.99614189  0.16498182    -0.38700
N673        N  0.33936899  0.98957145  0.27802394    -0.38100
N674        N  0.14001983  0.00052953  0.23062055    -0.38100
C675        C  0.94739761  0.60033523  0.39441534    -0.04800
C676        C  0.93774545  0.60024631  0.36267964    -0.01900
C677        C  0.91168286  0.57734246  0.35160023     0.03100
C678        C  0.89318377  0.55615877  0.37233234    -0.04800
C679        C  0.89902535  0.56093966  0.40471535    -0.01900
C680        C  0.92734690  0.58113437  0.41546013     0.03100
C681        C  0.95387849  0.62395943  0.34106097     0.37800
C682        C  0.87554677  0.54647269  0.42739480     0.37700
C683        C  0.93602014  0.58197261  0.44818092     0.36200
C684        C  0.90241803  0.57723156  0.31905799     0.36200
N685        N  0.94300385  0.58245615  0.47426455    -0.38700
N686        N  0.89482983  0.57793352  0.29314377    -0.38700
N687        N  0.85668078  0.53656230  0.44619515    -0.38100
N688        N  0.96499660  0.64284978  0.32278281    -0.38100
C689        C  0.10001674  0.83783503  0.36412543    -0.04800
C690        C  0.08930382  0.83146206  0.39471842    -0.01900
C691        C  0.08204516  0.79743659  0.40452127     0.03100
C692        C  0.08349470  0.76918023  0.38326419    -0.04800
C693        C  0.09598995  0.77533548  0.35295452    -0.01900
C694        C  0.10359222  0.80964547  0.34325499     0.03100
C695        C  0.08614776  0.85963515  0.41686455     0.37800
C696        C  0.10517369  0.74634774  0.33313883     0.37700
C697        C  0.11484328  0.81603454  0.31171604     0.36200
C698        C  0.07529079  0.79187401  0.43724966     0.36200
N699        N  0.12362744  0.82125240  0.28651907    -0.38700
N700        N  0.07135645  0.78795953  0.46358585    -0.38700
N701        N  0.11374911  0.72345053  0.31753653    -0.38100
N702        N  0.08284392  0.88057374  0.43590392    -0.38100
C703        C  0.96036103  0.93878705  0.11563806    -0.04800
C704        C  0.96762489  0.97511084  0.11811461    -0.01900
C705        C  0.94491393  0.99742144  0.13371378     0.03100
C706        C  0.91272263  0.98491078  0.14422237    -0.04800
C707        C  0.90395411  0.94951964  0.13955003    -0.01900
C708        C  0.92785505  0.92637725  0.12600138     0.03100
C709        C  0.99808650  0.99041851  0.10378207     0.37800
C710        C  0.87052673  0.93674262  0.14954785     0.37700
C711        C  0.91886845  0.88984799  0.12339763     0.36200
C712        C  0.95432358  0.03392008  0.13744700     0.36200
N713        N  0.91146813  0.86071813  0.12137734    -0.38700
N714        N  0.96196567  0.06290380  0.14042862    -0.38700
N715        N  0.84378872  0.92673673  0.15753674    -0.38100
N716        N  0.02224420  0.00284421  0.09248577    -0.38100
C717        C  0.17234942  0.88854591  0.10513725    -0.04800
C718        C  0.19316893  0.86452572  0.12108980    -0.01900
C719        C  0.22617744  0.87445341  0.13218094     0.03100
C720        C  0.23962564  0.90823209  0.12656982    -0.04800
C721        C  0.22035868  0.93098561  0.10793042    -0.01900
C722        C  0.18691358  0.92176087  0.09806271     0.03100
C723        C  0.18054595  0.82999721  0.12823888     0.37800
C724        C  0.23492571  0.96416666  0.09818779     0.37700
C725        C  0.16780368  0.94750599  0.08087027     0.36200
C726        C  0.24540311  0.84993616  0.15060036     0.36200
N727        N  0.15283822  0.96842701  0.06749955    -0.38700
N728        N  0.26061813  0.83032945  0.16527212    -0.38700
N729        N  0.24645200  0.99054192  0.09038036    -0.38100
N730        N  0.17180904  0.80238249  0.13533790    -0.38100
C731        C  0.00131903  0.78602127  0.03094486    -0.04800
C732        C  0.00258185  0.75061327  0.03927265    -0.01900
C733        C  0.00568360  0.72461865  0.01614187     0.03100
C734        C  0.00577054  0.73365671  0.48443146    -0.04800
C735        C  0.99648314  0.76796999  0.47641620    -0.01900
C736        C  0.99581738  0.79429300  0.99949445     0.03100
C737        C  0.00294693  0.74072801  0.07154222     0.37800
C738        C  0.99046788  0.77718978  0.44434344     0.37700
C739        C  0.99180343  0.83028686  0.99065441     0.36200
C740        C  0.00968984  0.68862843  0.02506408     0.36200
N741        N  0.98891029  0.85901140  0.48353714    -0.38700
N742        N  0.01293133  0.65994519  0.03219028    -0.38700
N743        N  0.98554334  0.78463038  0.41879991    -0.38100
N744        N  0.00257129  0.73194039  0.09709128    -0.38100
C745        C  0.08083327  0.92827842  0.25488321    -0.04800
C746        C  0.10422858  0.91037629  0.23529446    -0.01900
C747        C  0.09290273  0.89564784  0.20749265     0.03100
C748        C  0.06000244  0.90289376  0.19614748    -0.04800
C749        C  0.03739236  0.92355082  0.21391313    -0.01900
C750        C  0.04763322  0.93589008  0.24359885     0.03100
C751        C  0.14039576  0.90660639  0.24324055     0.37800
C752        C  0.00385786  0.93215731  0.20174137     0.37700
C753        C  0.02420861  0.95637878  0.26215784     0.36200
C754        C  0.11492014  0.87153843  0.19104119     0.36200
N755        N  0.00560499  0.97301721  0.27684068    -0.38700
N756        N  0.13228653  0.85185497  0.17840529    -0.38700
N757        N  0.97695828  0.93905204  0.19231436    -0.38100
N758        N  0.16921234  0.90293063  0.24891932    -0.38100
C759        C  0.10140567  0.95509139  0.44914988    -0.04800
C760        C  0.06814067  0.95943630  0.46157802    -0.01900
C761        C  0.05998720  0.94601997  0.49106077     0.03100
C762        C  0.08518614  0.92796064  0.00794965    -0.04800
C763        C  0.11932849  0.92648850  0.99638282    -0.01900
C764        C  0.12747621  0.94085330  0.46750270     0.03100
C765        C  0.04236523  0.97755498  0.44383148     0.37800
C766        C  0.14619623  0.90851817  0.01307107     0.37700
C767        C  0.16247427  0.93858276  0.45615683     0.36200
C768        C  0.02512487  0.94862760  0.50276019     0.36200
N769        N  0.19088000  0.93615447  0.44862808    -0.38700
N770        N  0.99728302  0.95066325  0.51204976    -0.38700
N771        N  0.16779731  0.89366926  0.02554116    -0.38100
N772        N  0.02199282  0.99237609  0.42975952    -0.38100
C773        C  0.01469479  0.43702642  0.11239874    -0.04800
C774        C  0.04386067  0.42344986  0.12763358    -0.01900
C775        C  0.06751758  0.44615522  0.14277483     0.03100
C776        C  0.06109098  0.48212281  0.14434707    -0.04800
C777        C  0.03219622  0.49550795  0.12875603    -0.01900
C778        C  0.01109200  0.47346993  0.11082392     0.03100
C779        C  0.04945143  0.38633500  0.12833550     0.37800
C780        C  0.02387971  0.53214572  0.13060870     0.37700
C781        C  0.98621452  0.48863635  0.08986736     0.36200
C782        C  0.09751833  0.43240665  0.15813971     0.36200
N783        N  0.96672100  0.50077001  0.07296261    -0.38700
N784        N  0.12143622  0.42151682  0.17050743    -0.38700
N785        N  0.01672325  0.56118968  0.13214436    -0.38100
N786        N  0.05405426  0.35671679  0.12882207    -0.38100
C787        C  0.04616956  0.61990953  0.31413829    -0.04800
C788        C  0.05234560  0.64667422  0.29268993    -0.01900
C789        C  0.06715946  0.63870780  0.26392487     0.03100
C790        C  0.07137092  0.60372538  0.25494030    -0.04800
C791        C  0.05943883  0.57682588  0.27422582    -0.01900
C792        C  0.04771939  0.58484750  0.30429532     0.03100
C793        C  0.04460308  0.68247064  0.30038762     0.37800
C794        C  0.05990645  0.54110132  0.26337642     0.37700
C795        C  0.03750648  0.55719829  0.32515127     0.36200
C796        C  0.08070131  0.66675314  0.24510353     0.36200
N797        N  0.02936401  0.53522464  0.34187262    -0.38700
N798        N  0.09184614  0.68990155  0.23124624    -0.38700
N799        N  0.05983681  0.51261297  0.25462701    -0.38100
N800        N  0.03754418  0.71089210  0.30616860    -0.38100
C801        C  0.10932417  0.57254994  0.06344967    -0.04800
C802        C  0.12158524  0.60469434  0.05283705    -0.01900
C803        C  0.10748718  0.61966208  0.02621975     0.03100
C804        C  0.08537833  0.59989727  0.00618073    -0.04800
C805        C  0.07553348  0.56593182  0.01544229    -0.01900
C806        C  0.08636505  0.55297365  0.04455949     0.03100
C807        C  0.14953055  0.62225952  0.06897731     0.37800
C808        C  0.05497333  0.54390134  0.49506444     0.37700
C809        C  0.07580033  0.51848784  0.05407707     0.36200
C810        C  0.11482706  0.65625159  0.02089462     0.36200
N811        N  0.06770762  0.49061027  0.06102232    -0.38700
N812        N  0.12061223  0.68544267  0.01694185    -0.38700
N813        N  0.03877906  0.52612417  0.47878178    -0.38100
N814        N  0.17285467  0.63551136  0.08095808    -0.38100
C815        C  0.09409053  0.68776127  0.15108167    -0.04800
C816        C  0.06236549  0.70197496  0.16029261    -0.01900
C817        C  0.05430491  0.73661607  0.15261121     0.03100
C818        C  0.07589074  0.75563059  0.13211828    -0.04800
C819        C  0.10683952  0.74007908  0.12167830    -0.01900
C820        C  0.11714470  0.70799318  0.13357146     0.03100
C821        C  0.03787235  0.68082381  0.17741615     0.37800
C822        C  0.12779263  0.75571549  0.09751113     0.37700
C823        C  0.15208952  0.69672045  0.12846255     0.36200
C824        C  0.02258808  0.75140959  0.16409110     0.36200
N825        N  0.18060175  0.68962255  0.12473414    -0.38700
N826        N  0.99716928  0.76300341  0.17322662    -0.38700
N827        N  0.14428462  0.76746754  0.07775588    -0.38100
N828        N  0.01827949  0.66390910  0.19097430    -0.38100
C829        C  0.45180389  0.43172719  0.40209886    -0.04800
C830        C  0.41708145  0.42228015  0.39631304    -0.01900
C831        C  0.39523979  0.44440368  0.37936633     0.03100
C832        C  0.40772234  0.47648199  0.36752946    -0.04800
C833        C  0.44296160  0.48519918  0.37227035    -0.01900
C834        C  0.46441577  0.46353618  0.39004657     0.03100
C835        C  0.40376779  0.38939150  0.40770598     0.37800
C836        C  0.45747890  0.51710948  0.35980551     0.37700
C837        C  0.49996083  0.47401198  0.39525029     0.36200
C838        C  0.36010258  0.43325644  0.37314225     0.36200
N839        N  0.52818473  0.48271414  0.39946026    -0.38700
N840        N  0.33212331  0.42424674  0.36812089    -0.38700
N841        N  0.46919878  0.54254283  0.35003488    -0.38100
N842        N  0.39322911  0.36309416  0.41668769    -0.38100
C843        C  0.23216934  0.61129435  0.37642035    -0.04800
C844        C  0.20491713  0.61034389  0.35486137    -0.01900
C845        C  0.17129181  0.61832571  0.36442411     0.03100
C846        C  0.16492719  0.62884275  0.39527378    -0.04800
C847        C  0.19268608  0.63247355  0.41619127    -0.01900
C848        C  0.22627483  0.62372653  0.40677592     0.03100
C849        C  0.21160215  0.60286489  0.32237272     0.37800
C850        C  0.18662338  0.64467594  0.44759346     0.37700
C851        C  0.25476173  0.62881670  0.42800797     0.36200
C852        C  0.14364489  0.61597533  0.34206846     0.36200
N853        N  0.27725485  0.63406359  0.44503883    -0.38700
N854        N  0.12278418  0.61363161  0.32308039    -0.38700
N855        N  0.18198247  0.65444438  0.47266497    -0.38100
N856        N  0.21629395  0.59787210  0.29622586    -0.38100
C857        C  0.21261119  0.52395094  0.23042925    -0.04800
C858        C  0.20260532  0.51553861  0.26095571    -0.01900
C859        C  0.22739279  0.51488682  0.28508676     0.03100
C860        C  0.26240858  0.52225527  0.27871055    -0.04800
C861        C  0.27286275  0.52573632  0.24754350    -0.01900
C862        C  0.24811603  0.52688964  0.22354498     0.03100
C863        C  0.16646866  0.51051637  0.26796151     0.37800
C864        C  0.30902132  0.53094896  0.24045759     0.37700
C865        C  0.25916151  0.53401842  0.19208118     0.36200
C866        C  0.21639578  0.51032639  0.31692364     0.36200
N867        N  0.26843994  0.53975183  0.16712406    -0.38700
N868        N  0.20756049  0.50689916  0.34235139    -0.38700
N869        N  0.33784104  0.53498990  0.23463398    -0.38100
N870        N  0.13762225  0.50633330  0.27356900    -0.38100
C871        C  0.51647747  0.58260967  0.11068208    -0.04800
C872        C  0.54318029  0.59276241  0.13130199    -0.01900
C873        C  0.56541531  0.56759669  0.14410446     0.03100
C874        C  0.56062718  0.53179916  0.13705683    -0.04800
C875        C  0.53430375  0.52211067  0.11547191    -0.01900
C876        C  0.51335804  0.54731992  0.10191457     0.03100
C877        C  0.54613427  0.62869356  0.14135748     0.37800
C878        C  0.52762856  0.48599819  0.10694028     0.37700
C879        C  0.48690355  0.53623300  0.07997504     0.36200
C880        C  0.59157467  0.57854624  0.16618444     0.36200
N881        N  0.46564467  0.52666277  0.06307094    -0.38700
N882        N  0.61236669  0.58734161  0.18387820    -0.38700
N883        N  0.52184744  0.45739374  0.10006575    -0.38100
N884        N  0.54841697  0.65732425  0.14953815    -0.38100
C885        C  0.36470640  0.56073752  0.45062117    -0.04800
C886        C  0.39898386  0.55867078  0.46200079    -0.01900
C887        C  0.40753596  0.57147109  0.49179576     0.03100
C888        C  0.38210427  0.58687087  0.01045267    -0.04800
C889        C  0.34752404  0.58698832  0.99965609    -0.01900
C890        C  0.33867984  0.57063740  0.47149471     0.03100
C891        C  0.42600348  0.54312238  0.44368549     0.37800
C892        C  0.32108594  0.60674141  0.01539142     0.37700
C893        C  0.30275252  0.56317171  0.46479945     0.36200
C894        C  0.44336710  0.57253073  0.50135719     0.36200
N895        N  0.27414085  0.55648295  0.45991723    -0.38700
N896        N  0.47212400  0.57364968  0.50826620    -0.38700
N897        N  0.29989004  0.62335292  0.02683040    -0.38100
N898        N  0.44860048  0.53100364  0.43018334    -0.38100
C899        C  0.39864044  0.60603864  0.25845456    -0.04800
C900        C  0.39546669  0.64012668  0.24709213    -0.01900
C901        C  0.40787984  0.64842793  0.21739133     0.03100
C902        C  0.42275755  0.62249035  0.19869264    -0.04800
C903        C  0.42729496  0.58875084  0.21061335    -0.01900
C904        C  0.41582469  0.58075001  0.24077608     0.03100
C905        C  0.37804520  0.66643375  0.26532404     0.37800
C906        C  0.44202472  0.56179990  0.19122948     0.37700
C907        C  0.41980830  0.54605105  0.25299957     0.36200
C908        C  0.40280378  0.68301611  0.20528687     0.36200
N909        N  0.42278829  0.51844192  0.26295659    -0.38700
N910        N  0.39830491  0.71074831  0.19616714    -0.38700
N911        N  0.45352592  0.54015928  0.17576962    -0.38100
N912        N  0.36407507  0.68777113  0.27934673    -0.38100
C913        C  0.23577761  0.61596907  0.13280530    -0.04800
C914        C  0.25349867  0.64536310  0.14509117    -0.01900
C915        C  0.28676644  0.65404965  0.13420753     0.03100
C916        C  0.30346915  0.63182824  0.11285650    -0.04800
C917        C  0.28558505  0.60220811  0.10106145    -0.01900
C918        C  0.25112446  0.59628598  0.10891779     0.03100
C919        C  0.23873985  0.66548979  0.17028132     0.37800
C920        C  0.30270745  0.57588446  0.08252111     0.37700
C921        C  0.23177972  0.56925509  0.09253218     0.36200
C922        C  0.30483595  0.68393464  0.14731068     0.36200
N923        N  0.21663986  0.54773783  0.07926423    -0.38700
N924        N  0.31911051  0.70775692  0.15795700    -0.38700
N925        N  0.31605348  0.55416112  0.06847519    -0.38100
N926        N  0.22702531  0.68152538  0.19038265    -0.38100
C927        C  0.39855965  0.76342994  0.12831719    -0.04800
C928        C  0.36860150  0.77921488  0.11620720    -0.01900
C929        C  0.36172207  0.81424652  0.12273805     0.03100
C930        C  0.38315290  0.83324006  0.14300258    -0.04800
C931        C  0.41209082  0.81754514  0.15633207    -0.01900
C932        C  0.42006294  0.78282291  0.14882871     0.03100
C933        C  0.34385477  0.75947227  0.09776077     0.37800
C934        C  0.43413441  0.83752246  0.17719095     0.37700
C935        C  0.45092974  0.76777259  0.16162083     0.36200
C936        C  0.33288966  0.83107825  0.10798704     0.36200
N937        N  0.47552402  0.75585172  0.17197706    -0.38700
N938        N  0.31015008  0.84445079  0.09584082    -0.38700
N939        N  0.45179244  0.85351274  0.19369592    -0.38100
N940        N  0.32362478  0.74418197  0.08325399    -0.38100
C941        C  0.52024980  0.93550254  0.39574238    -0.04800
C942        C  0.51613473  0.97212228  0.39536508    -0.01900
C943        C  0.53871070  0.99346081  0.37828561     0.03100
C944        C  0.56804157  0.97937897  0.36379080    -0.04800
C945        C  0.57380741  0.94329854  0.36592156    -0.01900
C946        C  0.54972658  0.92132533  0.38126878     0.03100
C947        C  0.48810672  0.98839990  0.41217595     0.37800
C948        C  0.60361657  0.92854218  0.35082550     0.37700
C949        C  0.55476361  0.88410750  0.38094169     0.36200
C950        C  0.53139999  0.03026159  0.37598777     0.36200
N951        N  0.55882944  0.85439330  0.38066616    -0.38700
N952        N  0.52502318  0.05944905  0.37424778    -0.38700
N953        N  0.62726828  0.91667144  0.33859595    -0.38100
N954        N  0.46570181  0.00176432  0.42506377    -0.38100
C955        C  0.39827742  0.75468426  0.38199409    -0.04800
C956        C  0.36512801  0.74101752  0.38906150    -0.01900
C957        C  0.35610461  0.70671842  0.38056917     0.03100
C958        C  0.38028068  0.68510477  0.36602383    -0.04800
C959        C  0.41314096  0.69853839  0.35851909    -0.01900
C960        C  0.42209734  0.73325115  0.36625708     0.03100
C961        C  0.33981354  0.76198945  0.40510147     0.37800
C962        C  0.43744582  0.67678473  0.34212605     0.37700
C963        C  0.45630240  0.74626023  0.35897778     0.36200
C964        C  0.32158431  0.69391040  0.38673556     0.36200
N965        N  0.48358480  0.75665191  0.35312233    -0.38700
N966        N  0.29367328  0.68477852  0.39157944    -0.38700
N967        N  0.45670636  0.65940198  0.32892978    -0.38100
N968        N  0.31943636  0.77815291  0.41817156    -0.38100
C969        C  0.45399666  0.78751376  0.48426740    -0.04800
C970        C  0.42275960  0.77257437  0.49516473    -0.01900
C971        C  0.42293404  0.74357829  0.01460651     0.03100
C972        C  0.45433600  0.73008263  0.02582512    -0.04800
C973        C  0.48565576  0.74502964  0.01540718    -0.01900
C974        C  0.48549519  0.77326947  0.49420905     0.03100
C975        C  0.38954535  0.78653865  0.48637266     0.37800
C976        C  0.51786131  0.73018758  0.02518473     0.37700
C977        C  0.51760825  0.78830301  0.48344200     0.36200
C978        C  0.38993692  0.72759890  0.02243859     0.36200
N979        N  0.54329884  0.80036912  0.47491433    -0.38700
N980        N  0.36343528  0.71497719  0.02778592    -0.38700
N981        N  0.54356403  0.71806890  0.03280065    -0.38100
N982        N  0.36282101  0.79736115  0.48009176    -0.38100
C983        C  0.30481872  0.89358443  0.40013230    -0.04800
C984        C  0.28373991  0.87229646  0.38101464    -0.01900
C985        C  0.25058195  0.88335330  0.37251905     0.03100
C986        C  0.23870324  0.91648323  0.38191651    -0.04800
C987        C  0.25936524  0.93744166  0.40155302    -0.01900
C988        C  0.29188633  0.92601318  0.41090387     0.03100
C989        C  0.29685967  0.84040567  0.36772832     0.37800
C990        C  0.24843939  0.97205582  0.41065696     0.37700
C991        C  0.31223948  0.94898056  0.43081919     0.36200
C992        C  0.22883869  0.86052874  0.35376062     0.36200
N993        N  0.32818360  0.96788649  0.44627911    -0.38700
N994        N  0.21153169  0.84238558  0.33876654    -0.38700
N995        N  0.23996171  0.99967220  0.41784976    -0.38100
N996        N  0.30681692  0.81512290  0.35640356    -0.38100
C997        C  0.42556072  0.89108971  0.31088242    -0.04800
C998        C  0.44006332  0.91975949  0.29513820    -0.01900
C999        C  0.42841869  0.92804785  0.26511684     0.03100
C1000       C  0.40184724  0.90801347  0.25131469    -0.04800
C1001       C  0.38963788  0.87762392  0.26603868    -0.01900
C1002       C  0.40173531  0.86904727  0.29564638     0.03100
C1003       C  0.46586896  0.94145847  0.31027785     0.37800
C1004       C  0.36412760  0.85538895  0.25095351     0.37700
C1005       C  0.38885358  0.83802258  0.31085457     0.36200
C1006       C  0.44228011  0.95817542  0.24920892     0.36200
N1007       N  0.37862432  0.81306108  0.32263247    -0.38700
N1008       N  0.45330852  0.98213846  0.23638095    -0.38700
N1009       N  0.34372978  0.83765474  0.23905101    -0.38100
N1010       N  0.48657916  0.95886119  0.32211266    -0.38100
C1011       C  0.36707619  0.95593892  0.06017207    -0.04800
C1012       C  0.39703586  0.96873121  0.04515490    -0.01900
C1013       C  0.40588760  0.95713117  0.01496918     0.03100
C1014       C  0.38376144  0.93405329  0.99867575    -0.04800
C1015       C  0.35119237  0.92558448  0.01215134    -0.01900
C1016       C  0.34345165  0.93565393  0.04277351     0.03100
C1017       C  0.41817798  0.99513341  0.05999188     0.37800
C1018       C  0.32523907  0.90552226  0.49518796     0.37700
C1019       C  0.31164322  0.92305581  0.05649857     0.36200
C1020       C  0.43852236  0.96788778  0.00164928     0.36200
N1021       N  0.28604421  0.91233819  0.06641927    -0.38700
N1022       N  0.46477363  0.97659852  0.99150042    -0.38700
N1023       N  0.30439556  0.88934494  0.48220051    -0.38100
N1024       N  0.43515805  0.01698993  0.07061262    -0.38100
O1025       O  0.41669044  0.92746655  0.95041707    -0.84800
O1026       O  0.46082076  0.92597108  0.89809451    -0.81800
C1027       C  0.48964818  0.91325883  0.90396226     0.98700
O1028       O  0.49148793  0.88214647  0.91316513    -0.81900
O1029       O  0.46521855  0.81574322  0.93506387    -0.84500
C1030       C  0.45168962  0.81702633  0.96194730     1.03200
O1031       O  0.43000390  0.83996405  0.96783251    -0.77300
O1032       O  0.37992975  0.88712731  0.96381365    -0.77500
C1033       C  0.39461255  0.91571563  0.96946740     1.03200
O1034       O  0.36235261  0.90955846  0.90929197    -0.84800
O1035       O  0.40683970  0.90168486  0.86151250    -0.81800
C1036       C  0.42947876  0.88793437  0.84467327     0.98700
O1037       O  0.45444018  0.87146897  0.85618847    -0.81900
O1038       O  0.42797179  0.80976244  0.87787585    -0.84500
C1039       C  0.40841196  0.79011527  0.89332484     1.03200
O1040       O  0.39781720  0.79977575  0.91949308    -0.77300
O1041       O  0.35141314  0.85387430  0.91091212    -0.77400
C1042       C  0.34132806  0.88463217  0.90670012     1.03100
Cr1043     Cr  0.41272870  0.91270952  0.90566114     1.93700
Cr1044     Cr  0.45714370  0.84682434  0.89730984     1.93200
Cr1045     Cr  0.39217203  0.84662336  0.93841870     1.39100
O1046       O  0.42082043  0.86864519  0.91356990    -1.22500
O1047       O  0.41342705  0.59348026  0.55865585    -0.84800
O1048       O  0.45726298  0.59213900  0.61030544    -0.81800
C1049       C  0.48642908  0.60550106  0.60515072     0.98700
O1050       O  0.48933679  0.63721996  0.59789980    -0.81900
O1051       O  0.46479616  0.70313844  0.57573137    -0.84500
C1052       C  0.45240107  0.70068799  0.54835128     1.03200
O1053       O  0.43101136  0.67696063  0.54244783    -0.77300
O1054       O  0.37637824  0.63281844  0.54610748    -0.77500
C1055       C  0.39156313  0.60512183  0.53980660     1.03200
O1056       O  0.35876559  0.61152508  0.60036870    -0.84800
O1057       O  0.40373860  0.61511367  0.64782913    -0.81800
C1058       C  0.42639474  0.62844624  0.66516515     0.98700
O1059       O  0.45126898  0.64640851  0.65439427    -0.81900
O1060       O  0.42597708  0.70793004  0.63299142    -0.84500
C1061       C  0.40858564  0.72834205  0.61685413     1.03200
O1062       O  0.40071216  0.71978498  0.58959839    -0.77300
O1063       O  0.35194353  0.66788220  0.59919757    -0.77400
C1064       C  0.33999588  0.63775684  0.60418137     1.03100
Cr1065     Cr  0.40933366  0.60628273  0.60351043     1.93700
Cr1066     Cr  0.45539462  0.67184942  0.61362369     1.93200
Cr1067     Cr  0.39219586  0.67289054  0.57127877     1.39100
O1068       O  0.41911233  0.65027241  0.59658689    -1.22500
O1069       O  0.34892675  0.59328594  0.78729689    -0.84800
O1070       O  0.28550512  0.57035795  0.80550701    -0.81800
C1071       C  0.28475627  0.53756551  0.80352560     0.98700
O1072       O  0.30143830  0.51927397  0.82254183    -0.81900
O1073       O  0.35337084  0.50471166  0.86763681    -0.84500
C1074       C  0.38307451  0.50335203  0.85582371     1.03200
O1075       O  0.39308137  0.52793022  0.83874977    -0.77300
O1076       O  0.39828141  0.59378663  0.81220419    -0.77500
C1077       C  0.38114875  0.59650791  0.78748800     1.03200
O1078       O  0.34967500  0.64448143  0.83506755    -0.84800
O1079       O  0.28864255  0.61865868  0.85685015    -0.81800
C1080       C  0.26612702  0.59806421  0.86698664     0.98700
O1081       O  0.27099524  0.56568883  0.86625277    -0.81900
O1082       O  0.32663118  0.55641180  0.90633833    -0.84500
C1083       C  0.35719194  0.55812677  0.91656882     1.03200
O1084       O  0.38217337  0.55948183  0.89785220    -0.77300
O1085       O  0.38309140  0.62376559  0.87126594    -0.77400
C1086       C  0.37045447  0.64910680  0.85716371     1.03100
Cr1087     Cr  0.31989211  0.60400685  0.82325275     1.93700
Cr1088     Cr  0.31516480  0.53910828  0.86401307     1.93200
Cr1089     Cr  0.38539588  0.57587724  0.85417660     1.39100
O1090       O  0.34033627  0.57300321  0.84698610    -1.22500
O1091       O  0.12167119  0.59123606  0.72705536    -0.84800
O1092       O  0.18648776  0.57248012  0.70815112    -0.81800
C1093       C  0.18734954  0.53965081  0.70873849     0.98700
O1094       O  0.16897757  0.52165884  0.69014261    -0.81900
O1095       O  0.11670536  0.50766649  0.64483142    -0.84500
C1096       C  0.08703846  0.50703080  0.65683622     1.03200
O1097       O  0.07750411  0.53178723  0.67381681    -0.77300
O1098       O  0.07369382  0.59682964  0.70066303    -0.77500
C1099       C  0.08968869  0.59580625  0.72611490     1.03200
O1100       O  0.12121305  0.64599151  0.68258490    -0.84800
O1101       O  0.18218429  0.62239941  0.65929996    -0.81800
C1102       C  0.20375124  0.60239302  0.64717444     0.98700
O1103       O  0.19924299  0.56987567  0.64839774    -0.81900
O1104       O  0.14573155  0.56047471  0.60701343    -0.84500
C1105       C  0.11558633  0.56362251  0.59644580     1.03200
O1106       O  0.09003527  0.56254118  0.61442871    -0.77300
O1107       O  0.09187763  0.62682637  0.64245008    -0.77400
C1108       C  0.10295830  0.65162627  0.65899788     1.03100
Cr1109     Cr  0.15131005  0.60558503  0.69232747     1.93700
Cr1110     Cr  0.15569118  0.54213001  0.64919009     1.93200
Cr1111     Cr  0.08667457  0.57906431  0.65859882     1.39100
O1112       O  0.13111347  0.57548412  0.66680811    -1.22500
O1113       O  0.05648653  0.92172442  0.55679314    -0.84800
O1114       O  0.01919376  0.92649447  0.61163968    -0.81800
C1115       C  0.98928932  0.91463552  0.60777140     0.98700
O1116       O  0.98516091  0.88287757  0.60058521    -0.81900
O1117       O  0.00531170  0.81485057  0.58098626    -0.84500
C1118       C  0.01501069  0.81315646  0.55279594     1.03200
O1119       O  0.03994095  0.83150584  0.54346250    -0.77300
O1120       O  0.09099269  0.88051537  0.54165260    -0.77500
C1121       C  0.07632368  0.90900750  0.53668648     1.03200
O1122       O  0.11553999  0.90602291  0.59286680    -0.84800
O1123       O  0.07545911  0.90362336  0.64413821    -0.81800
C1124       C  0.05321761  0.89388041  0.66351003     0.98700
O1125       O  0.02668795  0.87658415  0.65526731    -0.81900
O1126       O  0.04830929  0.81155994  0.63524008    -0.84500
C1127       C  0.06541878  0.79005375  0.61946223     1.03200
O1128       O  0.07341043  0.79697210  0.59191098    -0.77300
O1129       O  0.12279228  0.85030983  0.59512638    -0.77400
C1130       C  0.13511659  0.88079024  0.59752096     1.03100
Cr1131     Cr  0.06551696  0.91094502  0.60073180     1.93700
Cr1132     Cr  0.01897928  0.84796210  0.61614143     1.93200
Cr1133     Cr  0.07980666  0.84175309  0.57017603     1.39100
O1134       O  0.05438760  0.86674949  0.59567318    -1.22500
O1135       O  0.05260125  0.60288893  0.95757454    -0.84800
O1136       O  0.00691076  0.59928336  0.90588358    -0.81800
C1137       C  0.98021341  0.61754933  0.90435700     0.98700
O1138       O  0.98172796  0.65001708  0.90839712    -0.81900
O1139       O  0.01161670  0.71083135  0.93249044    -0.84500
C1140       C  0.02114093  0.70963337  0.96073660     1.03200
O1141       O  0.04610784  0.69070298  0.96865304    -0.77300
O1142       O  0.09540634  0.63825099  0.96474865    -0.77500
C1143       C  0.07651228  0.61434270  0.97487588     1.03200
O1144       O  0.10911971  0.61132835  0.91223505    -0.84800
O1145       O  0.06177515  0.61181232  0.86622172    -0.81800
C1146       C  0.04376902  0.62857522  0.84740665     0.98700
O1147       O  0.02494699  0.65326758  0.85610162    -0.81900
O1148       O  0.05513058  0.71350132  0.87694617    -0.84500
C1149       C  0.07292066  0.73370054  0.89365843     1.03200
O1150       O  0.08006559  0.72481182  0.92068448    -0.77300
O1151       O  0.12076272  0.66745311  0.91008087    -0.77400
C1152       C  0.12953840  0.63632434  0.90574710     1.03100
Cr1153     Cr  0.05703691  0.61005370  0.91138610     1.93700
Cr1154     Cr  0.02105686  0.67995508  0.89534840     1.93200
Cr1155     Cr  0.08296667  0.67830276  0.93902912     1.39100
O1156       O  0.05301612  0.65592224  0.91501970    -1.22500
O1157       O  0.35322080  0.92377910  0.72259547    -0.84800
O1158       O  0.28953081  0.94534246  0.70401555    -0.81800
C1159       C  0.28997846  0.97793899  0.70783605     0.98700
O1160       O  0.30922198  0.99699952  0.69106386    -0.81900
O1161       O  0.36222698  0.01329067  0.64626769    -0.84500
C1162       C  0.39215370  0.01268940  0.65775986     1.03200
O1163       O  0.40090751  0.98698371  0.67346916    -0.77300
O1164       O  0.40247200  0.92092507  0.69745920    -0.77500
C1165       C  0.38523603  0.91907346  0.72235672     1.03200
O1166       O  0.35439514  0.87317913  0.67489744    -0.84800
O1167       O  0.29449886  0.89973074  0.65107042    -0.81800
C1168       C  0.27256573  0.92074794  0.64126189     0.98700
O1169       O  0.27768324  0.95297634  0.64542636    -0.81900
O1170       O  0.33214248  0.96434916  0.60547248    -0.84500
C1171       C  0.36201753  0.96057294  0.59437012     1.03200
O1172       O  0.38785732  0.95902687  0.61221527    -0.77300
O1173       O  0.38543151  0.89418010  0.63692230    -0.77400
C1174       C  0.37380533  0.86879520  0.65188210     1.03100
Cr1175     Cr  0.32455355  0.91303411  0.68629365     1.93700
Cr1176     Cr  0.32228559  0.97958730  0.64857954     1.93200
Cr1177     Cr  0.39072015  0.94075826  0.65580396     1.39100
O1178       O  0.34611155  0.94459259  0.66372035    -1.22500
O1179       O  0.11102593  0.91077751  0.79832915    -0.84800
O1180       O  0.16555208  0.95837997  0.79374474    -0.81800
C1181       C  0.18675025  0.98209258  0.80152808     0.98700
O1182       O  0.18765356  0.99318210  0.82951678    -0.81900
O1183       O  0.12658423  0.02405031  0.85359727    -0.84500
C1184       C  0.09477042  0.02482583  0.85976727     1.03200
O1185       O  0.07690685  0.99734335  0.86019106    -0.77300
O1186       O  0.07854643  0.95493202  0.80648298    -0.77500
C1187       C  0.09050587  0.93252171  0.78800315     1.03200
O1188       O  0.13999270  0.88269064  0.85114848    -0.84800
O1189       O  0.19856143  0.92362332  0.84145511    -0.81800
C1190       C  0.20631292  0.93038067  0.86899423     0.98700
O1191       O  0.18744835  0.95001398  0.88469744    -0.81900
O1192       O  0.13033841  0.98062723  0.90655114    -0.84500
C1193       C  0.10743655  0.95941419  0.91569394     1.03200
O1194       O  0.09014928  0.94075923  0.89705389    -0.77300
O1195       O  0.08488888  0.89495888  0.84887885    -0.77400
C1196       C  0.10882294  0.87374112  0.85453871     1.03100
Cr1197     Cr  0.15208243  0.92139238  0.82308669     1.93700
Cr1198     Cr  0.15606568  0.98457016  0.86667531     1.93200
Cr1199     Cr  0.08606783  0.94749815  0.85219668     1.39100
O1200       O  0.13138712  0.95175330  0.84758078    -1.22500
O1201       O  0.57268404  0.44087159  0.70842805    -0.84800
O1202       O  0.57103662  0.47343631  0.65140151    -0.81800
C1203       C  0.58293777  0.50407519  0.65078553     0.98700
O1204       O  0.61381502  0.50984160  0.65888324    -0.81900
O1205       O  0.67950190  0.49349717  0.68377366    -0.84500
C1206       C  0.67899467  0.48883845  0.71299173     1.03200
O1207       O  0.66091622  0.46462293  0.72431078    -0.77300
O1208       O  0.61414874  0.41042785  0.72889499    -0.77500
C1209       C  0.58531640  0.42501999  0.73111251     1.03200
O1210       O  0.59369604  0.37844492  0.67844558    -0.84800
O1211       O  0.59784162  0.41267943  0.62321487    -0.81800
C1212       C  0.60880137  0.43292086  0.60247942     0.98700
O1213       O  0.62369562  0.46124621  0.60974268    -0.81900
O1214       O  0.68409770  0.44114152  0.63497237    -0.84500
C1215       C  0.70614828  0.42807181  0.65246933     1.03200
O1216       O  0.70006170  0.42569329  0.68102748    -0.77300
O1217       O  0.64958673  0.37439988  0.67998677    -0.77400
C1218       C  0.62040771  0.36023657  0.67623547     1.03100
Cr1219     Cr  0.58698955  0.42767413  0.66598112     1.93700
Cr1220     Cr  0.64896653  0.47409378  0.64908031     1.93200
Cr1221     Cr  0.65419032  0.42042411  0.70135788     1.39100
O1222       O  0.62978733  0.44145019  0.67249601    -1.22500
O1223       O  0.88670403  0.44127645  0.80836618    -0.84800
O1224       O  0.88079858  0.50519003  0.84127219    -0.81800
C1225       C  0.87000404  0.52737561  0.86071344     0.98700
O1226       O  0.84137916  0.52231799  0.87385617    -0.81900
O1227       O  0.78819642  0.50904596  0.82949898    -0.84500
C1228       C  0.77259187  0.49197128  0.80830647     1.03200
O1229       O  0.77360430  0.45915229  0.80727919    -0.77300
O1230       O  0.83637970  0.43875046  0.78529249    -0.77500
C1231       C  0.86870728  0.43737978  0.78417656     1.03200
O1232       O  0.87472399  0.40593201  0.86540402    -0.84800
O1233       O  0.87366213  0.46731636  0.89668306    -0.81800
C1234       C  0.85026348  0.46365937  0.91661436     0.98700
O1235       O  0.81891778  0.46451003  0.90832673    -0.81900
O1236       O  0.76048860  0.45743337  0.87016210    -0.84500
C1237       C  0.75593423  0.42500941  0.86777686     1.03200
O1238       O  0.77819502  0.40677857  0.85467811    -0.77300
O1239       O  0.83862427  0.38551584  0.83054282    -0.77400
C1240       C  0.86073371  0.38067294  0.85131235     1.03100
Cr1241     Cr  0.87500106  0.45513364  0.85206179     1.93700
Cr1242     Cr  0.80429170  0.48595989  0.86847392     1.93200
Cr1243     Cr  0.80849856  0.42539003  0.82170433     1.39100
O1244       O  0.82945405  0.45565418  0.84700257    -1.22500
O1245       O  0.87697012  0.38213407  0.54176383    -0.84800
O1246       O  0.92635324  0.33201157  0.54321699    -0.81800
C1247       C  0.95263623  0.31585071  0.55208400     0.98700
O1248       O  0.96224076  0.31716265  0.58037838    -0.81900
O1249       O  0.98566609  0.38288182  0.59944197    -0.84500
C1250       C  0.98393382  0.41496824  0.60494791     1.03200
O1251       O  0.95508832  0.42901941  0.60757521    -0.77300
O1252       O  0.91510612  0.42235461  0.55344924    -0.77500
C1253       C  0.89278786  0.40983696  0.53500385     1.03200
O1254       O  0.84774154  0.35561560  0.59808194    -0.84800
O1255       O  0.89292280  0.30001131  0.59321357    -0.81800
C1256       C  0.90128929  0.29409670  0.62074731     0.98700
O1257       O  0.91917399  0.31584742  0.63564992    -0.81900
O1258       O  0.94294227  0.37944361  0.65469633    -0.84500
C1259       C  0.91814709  0.39885885  0.66268699     1.03200
O1260       O  0.89793393  0.41112655  0.64293988    -0.77300
O1261       O  0.85736373  0.41096332  0.59209979    -0.77400
C1262       C  0.83777234  0.38668276  0.60063756     1.03100
Cr1263     Cr  0.88808825  0.34444413  0.57105501     1.93700
Cr1264     Cr  0.94988834  0.35038338  0.61569191     1.93200
Cr1265     Cr  0.90746453  0.41478520  0.59845313     1.39100
O1266       O  0.91569472  0.36981734  0.59497379    -1.22500
O1267       O  0.90678667  0.16631072  0.97511109    -0.84800
O1268       O  0.93167803  0.22736137  0.95068805    -0.81800
C1269       C  0.96407850  0.22561374  0.95247514     0.98700
O1270       O  0.98108622  0.20772932  0.93290334    -0.81900
O1271       O  0.99196913  0.15453806  0.88742348    -0.84500
C1272       C  0.99659720  0.12628061  0.90084363     1.03200
O1273       O  0.97432234  0.11552165  0.92003752    -0.77300
O1274       O  0.91236422  0.11392430  0.95489807    -0.77500
C1275       C  0.90634193  0.13363967  0.97783998     1.03200
O1276       O  0.85615168  0.16236951  0.92931975    -0.84800
O1277       O  0.88189268  0.22137946  0.90071194    -0.81800
C1278       C  0.90266404  0.24262457  0.88838357     0.98700
O1279       O  0.93419808  0.23695005  0.89089476    -0.81900
O1280       O  0.93586203  0.17735017  0.85297498    -0.84500
C1281       C  0.93022997  0.14571409  0.84537987     1.03200
O1282       O  0.93367788  0.12187729  0.86510170    -0.77300
O1283       O  0.87494217  0.12098801  0.89906384    -0.77400
C1284       C  0.85049309  0.13656085  0.91205518     1.03100
Cr1285     Cr  0.89679385  0.19236043  0.93677573     1.93700
Cr1286     Cr  0.95831087  0.19206570  0.89297361     1.93200
Cr1287     Cr  0.92433010  0.12219607  0.91047337     1.39100
O1288       O  0.92649783  0.16840160  0.91391478    -1.22500
O1289       O  0.58758518  0.09190230  0.80445280    -0.84800
O1290       O  0.58736185  0.02766919  0.83358676    -0.81800
C1291       C  0.59501027  0.00373792  0.85193850     0.98700
O1292       O  0.62367407  0.00484779  0.86551286    -0.81900
O1293       O  0.67659850  0.01646776  0.81994096    -0.84500
C1294       C  0.69537085  0.03382397  0.80127030     1.03200
O1295       O  0.69903570  0.06643172  0.80463649    -0.77300
O1296       O  0.63883818  0.09342008  0.78248885    -0.77500
C1297       C  0.60655029  0.09616079  0.78087973     1.03200
O1298       O  0.59961880  0.12439766  0.86285113    -0.84800
O1299       O  0.59759899  0.06238245  0.89252270    -0.81800
C1300       C  0.62234251  0.06435843  0.91149003     0.98700
O1301       O  0.65291377  0.05843754  0.90274888    -0.81900
O1302       O  0.70954971  0.06141725  0.86353963    -0.84500
C1303       C  0.71565846  0.09314320  0.86846099     1.03200
O1304       O  0.69551778  0.11495962  0.85693278    -0.77300
O1305       O  0.63764882  0.14368002  0.82970301    -0.77400
C1306       C  0.61343319  0.14918506  0.84843508     1.03100
Cr1307     Cr  0.59670070  0.07596395  0.84771123     1.93700
Cr1308     Cr  0.66387742  0.03761585  0.86123009     1.93200
Cr1309     Cr  0.66603299  0.10210621  0.82050926     1.39100
O1310       O  0.64179568  0.07190284  0.84269548    -1.22500
O1311       O  0.89379485  0.09947437  0.70223220    -0.84800
O1312       O  0.89411950  0.03479723  0.67260250    -0.81800
C1313       C  0.88643923  0.01046967  0.65405253     0.98700
O1314       O  0.85856682  0.01138332  0.63915637    -0.81900
O1315       O  0.80302239  0.02016952  0.68207687    -0.84500
C1316       C  0.78339565  0.03664676  0.70052832     1.03200
O1317       O  0.78223834  0.06949044  0.70000613    -0.77300
O1318       O  0.84273670  0.09590252  0.72420668    -0.77500
C1319       C  0.87473519  0.10120976  0.72598050     1.03200
O1320       O  0.88167275  0.13082460  0.64366730    -0.84800
O1321       O  0.88592607  0.06868029  0.61379749    -0.81800
C1322       C  0.86184719  0.07185583  0.59433853     0.98700
O1323       O  0.83101907  0.06543574  0.60224324    -0.81900
O1324       O  0.77307180  0.06613459  0.63944268    -0.84500
C1325       C  0.76731378  0.09814257  0.63868625     1.03200
O1326       O  0.78819462  0.11930452  0.65079662    -0.77300
O1327       O  0.84444700  0.14819140  0.67849622    -0.77400
C1328       C  0.86641624  0.15475129  0.65786493     1.03100
Cr1329     Cr  0.88536068  0.08270719  0.65869690     1.93700
Cr1330     Cr  0.81834755  0.04306677  0.64248321     1.93200
Cr1331     Cr  0.81623815  0.10576224  0.68646682     1.39100
O1332       O  0.84024960  0.07698168  0.66310316    -1.22500
O1333       O  0.56106000  0.35430085  0.97532460    -0.84800
O1334       O  0.53645883  0.29445418  0.94809856    -0.81800
C1335       C  0.50450855  0.29778473  0.95217000     0.98700
O1336       O  0.48740159  0.31788896  0.93495855    -0.81900
O1337       O  0.47643931  0.37660385  0.89708212    -0.84500
C1338       C  0.47683436  0.40480319  0.91225252     1.03200
O1339       O  0.50194291  0.41195074  0.93011481    -0.77300
O1340       O  0.56865839  0.40639970  0.95659584    -0.77500
C1341       C  0.56832827  0.38596871  0.97941682     1.03200
O1342       O  0.61383176  0.35937202  0.92912520    -0.84800
O1343       O  0.58445619  0.30400108  0.89845066    -0.81800
C1344       C  0.56316769  0.28440221  0.88472048     0.98700
O1345       O  0.53143830  0.29084638  0.88685438    -0.81900
O1346       O  0.52649407  0.35325485  0.85418717    -0.84500
C1347       C  0.53172063  0.38543837  0.84935140     1.03200
O1348       O  0.53080698  0.40675674  0.87142003    -0.77300
O1349       O  0.59515163  0.39594087  0.89500692    -0.77400
C1350       C  0.61977537  0.38044650  0.90749177     1.03100
Cr1351     Cr  0.57151329  0.33013770  0.93607921     1.93700
Cr1352     Cr  0.50773965  0.33598456  0.89497357     1.93200
Cr1353     Cr  0.54877673  0.40167285  0.91382738     1.39100
O1354       O  0.54234699  0.35612296  0.91530642    -1.22500
O1355       O  0.57041403  0.15207051  0.53176533    -0.84800
O1356       O  0.54843482  0.21531781  0.55414950    -0.81800
C1357       C  0.51593507  0.21279001  0.55388556     0.98700
O1358       O  0.50033941  0.19356312  0.57326132    -0.81900
O1359       O  0.49233140  0.14003341  0.61789890    -0.84500
C1360       C  0.49087401  0.11061090  0.60473394     1.03200
O1361       O  0.51454509  0.10178159  0.58633504    -0.77300
O1362       O  0.57874629  0.10281873  0.55559037    -0.77500
C1363       C  0.57822315  0.12035446  0.53078046     1.03200
O1364       O  0.62574280  0.15298339  0.57462385    -0.84800
O1365       O  0.60057652  0.21184560  0.60198986    -0.81800
C1366       C  0.58063513  0.23194299  0.61624129     0.98700
O1367       O  0.54860971  0.22691831  0.61383211    -0.81900
O1368       O  0.54591913  0.17074762  0.65387264    -0.84500
C1369       C  0.55055732  0.14004112  0.66323072     1.03200
O1370       O  0.54869105  0.11484518  0.64419836    -0.77300
O1371       O  0.60946462  0.12129402  0.61406614    -0.77400
C1372       C  0.63275429  0.13475211  0.59779381     1.03100
Cr1373     Cr  0.58404618  0.18144904  0.56755422     1.93700
Cr1374     Cr  0.52389432  0.18107266  0.61301252     1.93200
Cr1375     Cr  0.56221984  0.11350648  0.59918442     1.39100
O1376       O  0.55639934  0.15838744  0.59284605    -1.22500
C1377       C  0.48935503  0.27786544  0.97846997    -0.04800
C1378       C  0.49228730  0.29233688  0.50857083    -0.01900
C1379       C  0.49678243  0.27056793  0.53451962     0.03100
C1380       C  0.49751979  0.23409911  0.53064694    -0.04800
C1381       C  0.48937865  0.21965003  0.00136154    -0.01900
C1382       C  0.48505189  0.24150490  0.97542829     0.03100
C1383       C  0.49365872  0.32976121  0.51245999     0.37800
C1384       C  0.48881571  0.18222767  0.99731089     0.37700
C1385       C  0.47814276  0.22634244  0.94525893     0.36200
C1386       C  0.50359395  0.28575480  0.56481905     0.36200
N1387       N  0.47198539  0.21349025  0.92155521    -0.38700
N1388       N  0.50910450  0.29791616  0.58896582    -0.38700
N1389       N  0.48849074  0.15237136  0.99404230    -0.38100
N1390       N  0.49454931  0.35962201  0.51566131    -0.38100
C1391       C  0.73457536  0.11033883  0.62596585    -0.04800
C1392       C  0.71548054  0.13516718  0.64272570    -0.01900
C1393       C  0.68300616  0.14482612  0.63204121     0.03100
C1394       C  0.66866283  0.12844788  0.60574890    -0.04800
C1395       C  0.68793047  0.10455244  0.58832501    -0.01900
C1396       C  0.72109569  0.09568310  0.59825461     0.03100
C1397       C  0.72809132  0.14934622  0.67197996     0.37800
C1398       C  0.67332429  0.08863422  0.56060248     0.37700
C1399       C  0.74124425  0.07165384  0.57985506     0.36200
C1400       C  0.66491420  0.17252967  0.64758493     0.36200
N1401       N  0.75726537  0.05260407  0.56502277    -0.38700
N1402       N  0.65154022  0.19544631  0.65984034    -0.38700
N1403       N  0.66168985  0.07595918  0.53849214    -0.38100
N1404       N  0.73806367  0.16049663  0.69535024    -0.38100
C1405       C  0.57521383  0.25188834  0.86890408    -0.04800
C1406       C  0.61051986  0.24721660  0.86181327    -0.01900
C1407       C  0.62246893  0.21439166  0.85223652     0.03100
C1408       C  0.60020103  0.18507878  0.85290611    -0.04800
C1409       C  0.56446187  0.19049015  0.85630057    -0.01900
C1410       C  0.55195364  0.22405449  0.86246196     0.03100
C1411       C  0.63478344  0.27614024  0.86340218     0.37800
C1412       C  0.54015687  0.16195356  0.85164123     0.37700
C1413       C  0.51523261  0.22985423  0.86024567     0.36200
C1414       C  0.65717785  0.21156249  0.84026037     0.36200
N1415       N  0.48605323  0.23454651  0.85749321    -0.38700
N1416       N  0.68443739  0.20992959  0.82960850    -0.38700
N1417       N  0.52066838  0.13933697  0.84787171    -0.38100
N1418       N  0.65443740  0.29892972  0.86477048    -0.38100
C1419       C  0.75986712  0.01922446  0.72308394    -0.04800
C1420       C  0.77228011  0.01050409  0.75270217    -0.01900
C1421       C  0.74961834  0.00954891  0.77847897     0.03100
C1422       C  0.71449832  0.01768844  0.77488180    -0.04800
C1423       C  0.70136540  0.02121541  0.74455310    -0.01900
C1424       C  0.72392802  0.02190712  0.71876374     0.03100
C1425       C  0.80887121  0.00575223  0.75710162     0.37800
C1426       C  0.66487584  0.02668169  0.74010860     0.37700
C1427       C  0.71042146  0.02800789  0.68796232     0.36200
C1428       C  0.76293595  0.00236242  0.80902208     0.36200
N1429       N  0.69946632  0.03271755  0.66343028    -0.38700
N1430       N  0.77401524  0.99605582  0.83316702    -0.38700
N1431       N  0.63574902  0.03083024  0.73635602    -0.38100
N1432       N  0.83810529  0.00197986  0.76052168    -0.38100
C1433       C  0.61459727  0.07634416  0.94360127    -0.04800
C1434       C  0.59459174  0.05577991  0.96389392    -0.01900
C1435       C  0.58295769  0.06966119  0.49255768     0.03100
C1436       C  0.59034732  0.10473523  0.50075168    -0.04800
C1437       C  0.61115977  0.12489391  0.98048916    -0.01900
C1438       C  0.62269401  0.11086806  0.95209740     0.03100
C1439       C  0.58554529  0.02044773  0.95497588     0.37800
C1440       C  0.62175868  0.16003503  0.98892819     0.37700
C1441       C  0.64098595  0.13298924  0.93055046     0.36200
C1442       C  0.56284017  0.04788577  0.51317986     0.36200
N1443       N  0.65493566  0.15106004  0.91326790    -0.38700
N1444       N  0.54699901  0.03031459  0.52966233    -0.38700
N1445       N  0.63031455  0.18802992  0.99552053    -0.38100
N1446       N  0.57833372  0.99225917  0.94782842    -0.38100
C1447       C  0.59069413  0.10785320  0.75150968    -0.04800
C1448       C  0.60066262  0.14023690  0.73899402    -0.01900
C1449       C  0.58406265  0.15312374  0.71245597     0.03100
C1450       C  0.55971232  0.13237051  0.69624166    -0.04800
C1451       C  0.54778641  0.10134897  0.71034588    -0.01900
C1452       C  0.56312474  0.08920315  0.73785711     0.03100
C1453       C  0.62758373  0.16095536  0.75380048     0.37800
C1454       C  0.51760309  0.08353248  0.69831186     0.37700
C1455       C  0.55098966  0.05712873  0.75178146     0.36200
C1456       C  0.59070800  0.18864146  0.70360709     0.36200
N1457       N  0.54137161  0.03158669  0.76298988    -0.38700
N1458       N  0.59621835  0.21757159  0.69847359    -0.38700
N1459       N  0.49284946  0.06945543  0.68989684    -0.38100
N1460       N  0.64917321  0.17758984  0.76522772    -0.38100
C1461       C  0.89545252  0.11777845  0.50788314    -0.04800
C1462       C  0.91170087  0.08786135  0.51935231    -0.01900
C1463       C  0.89936003  0.07151377  0.54650127     0.03100
C1464       C  0.87068021  0.08481420  0.56269137    -0.04800
C1465       C  0.85326898  0.11350155  0.55024120    -0.01900
C1466       C  0.86569172  0.13007355  0.52326490     0.03100
C1467       C  0.94128793  0.07376290  0.50334084     0.37800
C1468       C  0.82225577  0.12610497  0.56488807     0.37700
C1469       C  0.84667134  0.15896143  0.01069246     0.36200
C1470       C  0.91497656  0.03960393  0.55661540     0.36200
N1471       N  0.83135525  0.18192409  0.00077625    -0.38700
N1472       N  0.92724837  0.01373836  0.56392086    -0.38700
N1473       N  0.79708052  0.13620141  0.57577108    -0.38100
N1474       N  0.96471982  0.06223282  0.49052732    -0.38100
C1475       C  0.88986586  0.11260163  0.75591370    -0.04800
C1476       C  0.88109098  0.14521992  0.76855571    -0.01900
C1477       C  0.89531627  0.15660982  0.79702120     0.03100
C1478       C  0.91851418  0.13541849  0.81339336    -0.04800
C1479       C  0.92722835  0.10248813  0.80035064    -0.01900
C1480       C  0.91343770  0.09162350  0.77149600     0.03100
C1481       C  0.85749359  0.16745305  0.75209639     0.37800
C1482       C  0.94974223  0.07894991  0.81651756     0.37700
C1483       C  0.92272966  0.05831380  0.75808539     0.36200
C1484       C  0.88416972  0.18939475  0.81004579     0.36200
N1485       N  0.93003723  0.03185209  0.74719536    -0.38700
N1486       N  0.87491450  0.21560189  0.82005158    -0.38700
N1487       N  0.96725705  0.05951177  0.82911982    -0.38100
N1488       N  0.83873066  0.18543593  0.73923418    -0.38100
C1489       C  0.74791181  0.10391216  0.88552966    -0.04800
C1490       C  0.75506638  0.13911144  0.89342095    -0.01900
C1491       C  0.78725631  0.14888511  0.90596517     0.03100
C1492       C  0.81432463  0.12477252  0.90667856    -0.04800
C1493       C  0.80626775  0.08921688  0.90265881    -0.01900
C1494       C  0.77269430  0.07872742  0.89401840     0.03100
C1495       C  0.72976153  0.16594294  0.88987033     0.37800
C1496       C  0.83185063  0.06316729  0.90938113     0.37700
C1497       C  0.76365487  0.04212260  0.89597700     0.36200
C1498       C  0.79158136  0.18336060  0.91945116     0.36200
N1499       N  0.75642523  0.01302368  0.89841866    -0.38700
N1500       N  0.79446427  0.21044314  0.93107060    -0.38700
N1501       N  0.85213924  0.04236131  0.91484895    -0.38100
N1502       N  0.71111496  0.18895540  0.88807055    -0.38100
C1503       C  0.89090200  0.26037915  0.63443933    -0.04800
C1504       C  0.91465461  0.24063274  0.65155900    -0.01900
C1505       C  0.90673207  0.20584549  0.65901572     0.03100
C1506       C  0.87452970  0.19127112  0.65071958    -0.04800
C1507       C  0.84969420  0.21193436  0.63625513    -0.01900
C1508       C  0.85802790  0.24608821  0.62754978     0.03100
C1509       C  0.94773993  0.25542885  0.66050223     0.37800
C1510       C  0.81546787  0.19823836  0.62994299     0.37700
C1511       C  0.83243587  0.26639351  0.61147776     0.36200
C1512       C  0.93158885  0.18507071  0.67544987     0.36200
N1513       N  0.81185230  0.28220402  0.59857373    -0.38700
N1514       N  0.95139972  0.16849708  0.68855787    -0.38700
N1515       N  0.78772956  0.18857036  0.62488080    -0.38100
N1516       N  0.97405459  0.26729775  0.66777329    -0.38100
C1517       C  0.97994214  0.24634579  0.97811851    -0.04800
C1518       C  0.97678039  0.23358185  0.50864343    -0.01900
C1519       C  0.97250411  0.25676612  0.53402436     0.03100
C1520       C  0.97003761  0.29288892  0.52883055    -0.04800
C1521       C  0.97783192  0.30565116  0.99894299    -0.01900
C1522       C  0.98382347  0.28244552  0.97398359     0.03100
C1523       C  0.97454503  0.19640544  0.51351971     0.37800
C1524       C  0.97741627  0.34267313  0.99331939     0.37700
C1525       C  0.99144612  0.29580084  0.94343242     0.36200
C1526       C  0.96717820  0.24300439  0.56484425     0.36200
N1527       N  0.99812891  0.30690066  0.91930546    -0.38700
N1528       N  0.96314377  0.23166703  0.58935017    -0.38700
N1529       N  0.97680897  0.37216366  0.98857142    -0.38100
N1530       N  0.97271384  0.16677655  0.51758333    -0.38100
C1531       C  0.88539968  0.42730217  0.75450891    -0.04800
C1532       C  0.88291048  0.39240190  0.74419528    -0.01900
C1533       C  0.89652681  0.38250569  0.71519626     0.03100
C1534       C  0.91170371  0.40755644  0.69571803    -0.04800
C1535       C  0.91567585  0.44215197  0.70653937    -0.01900
C1536       C  0.90329316  0.45177910  0.73621050     0.03100
C1537       C  0.86615351  0.36627588  0.76319603     0.37800
C1538       C  0.93228985  0.46787437  0.68700144     0.37700
C1539       C  0.90845277  0.48691717  0.74760454     0.36200
C1540       C  0.89380487  0.34655661  0.70514782     0.36200
N1541       N  0.91284316  0.51499838  0.75658412    -0.38700
N1542       N  0.89149932  0.31761482  0.69797585    -0.38700
N1543       N  0.94556204  0.48841823  0.67145690    -0.38100
N1544       N  0.85301099  0.34459446  0.77754774    -0.38100
C1545       C  0.86091494  0.45738683  0.94952144    -0.04800
C1546       C  0.89627169  0.45857221  0.95861723    -0.01900
C1547       C  0.90642803  0.44542638  0.98762923     0.03100
C1548       C  0.88209180  0.42840569  0.50658162    -0.04800
C1549       C  0.84675710  0.42912964  0.49814061    -0.01900
C1550       C  0.83633953  0.44716638  0.97169163     0.03100
C1551       C  0.92256427  0.47398598  0.93892661     0.37800
C1552       C  0.82066471  0.41019412  0.51544611     0.37700
C1553       C  0.80072827  0.45742610  0.96879158     0.36200
C1554       C  0.94224115  0.44794732  0.99705446     0.36200
N1555       N  0.77251111  0.46642261  0.96698988    -0.38700
N1556       N  0.97076982  0.45032370  0.00453643    -0.38700
N1557       N  0.79964071  0.39447424  0.52841726    -0.38100
N1558       N  0.94373415  0.48622303  0.92344192    -0.38100
C1559       C  0.89137674  0.27602693  0.87364107    -0.04800
C1560       C  0.85615810  0.28399355  0.87011935    -0.01900
C1561       C  0.84606587  0.31817338  0.86313852     0.03100
C1562       C  0.87109379  0.34456226  0.85829852    -0.04800
C1563       C  0.90611312  0.33568843  0.85764769    -0.01900
C1564       C  0.91615766  0.30143445  0.86411348     0.03100
C1565       C  0.83030866  0.25661042  0.87004617     0.37800
C1566       C  0.93188058  0.36156165  0.84908588     0.37700
C1567       C  0.95169556  0.29222330  0.85831235     0.45800
C1568       C  0.80969822  0.32600332  0.86146432     0.36200
N1569       N  0.97989230  0.28495141  0.85296914    -0.38700
N1570       N  0.78055816  0.33156358  0.86015978    -0.38700
N1571       N  0.95238037  0.38218164  0.84226177    -0.38100
N1572       N  0.80938377  0.23506856  0.86831688    -0.38100
C1573       C  0.72272350  0.40897586  0.87767360    -0.04800
C1574       C  0.69672687  0.40213900  0.85557875    -0.01900
C1575       C  0.66383018  0.39044915  0.86520528     0.03100
C1576       C  0.65591522  0.38780677  0.89717544    -0.04800
C1577       C  0.68301743  0.39155555  0.91896276    -0.01900
C1578       C  0.71660118  0.40045604  0.90890488     0.03100
C1579       C  0.70439891  0.40561974  0.82281170     0.37800
C1580       C  0.67657417  0.38652549  0.95175941     0.37700
C1581       C  0.74539032  0.39674825  0.92978673     0.36200
C1582       C  0.63949286  0.37777909  0.84218824     0.36200
N1583       N  0.76823854  0.39165567  0.94622177    -0.38700
N1584       N  0.62086503  0.36644130  0.82368463    -0.38700
N1585       N  0.67140746  0.38248131  0.97792004    -0.38100
N1586       N  0.71075657  0.40800873  0.79669159    -0.38100
C1587       C  0.73978221  0.41698936  0.63945016    -0.04800
C1588       C  0.75844603  0.38937713  0.65269069    -0.01900
C1589       C  0.78918182  0.37789896  0.63871173     0.03100
C1590       C  0.80341610  0.39602300  0.61327160    -0.04800
C1591       C  0.78644599  0.42601553  0.60230281    -0.01900
C1592       C  0.75398170  0.43493807  0.61388799     0.03100
C1593       C  0.74661338  0.37278623  0.68094270     0.37800
C1594       C  0.80271104  0.44957507  0.58039813     0.37700
C1595       C  0.73622271  0.46404751  0.60009823     0.36200
C1596       C  0.80723748  0.34891557  0.65214133     0.36200
N1597       N  0.72203683  0.48699805  0.58887833    -0.38700
N1598       N  0.82132750  0.32577989  0.66312451    -0.38700
N1599       N  0.81542492  0.46931482  0.56369625    -0.38100
N1600       N  0.73747919  0.35948847  0.70352391    -0.38100
C1601       C  0.70395982  0.50721662  0.73411762    -0.04800
C1602       C  0.69356223  0.51776573  0.76411405    -0.01900
C1603       C  0.71718767  0.51710866  0.78913825     0.03100
C1604       C  0.75191324  0.50872735  0.78363915    -0.04800
C1605       C  0.76344881  0.50615742  0.75265952    -0.01900
C1606       C  0.73957724  0.50506276  0.72794175     0.03100
C1607       C  0.65840304  0.52848287  0.76912671     0.37800
C1608       C  0.79975837  0.50203046  0.74634495     0.37700
C1609       C  0.75167876  0.49883809  0.69661951     0.36200
C1610       C  0.70518947  0.52182461  0.82067117     0.36200
N1611       N  0.76167856  0.49412310  0.67169047    -0.38700
N1612       N  0.69558781  0.52539761  0.84588199    -0.38700
N1613       N  0.82868052  0.49906106  0.74082090    -0.38100
N1614       N  0.63037418  0.53723209  0.77315316    -0.38100
C1615       C  0.59402827  0.26185104  0.63542639    -0.04800
C1616       C  0.62787243  0.27549443  0.63140715    -0.01900
C1617       C  0.63897087  0.30512177  0.64846862     0.03100
C1618       C  0.61581016  0.32265770  0.66812983    -0.04800
C1619       C  0.58450800  0.30593140  0.67580096    -0.01900
C1620       C  0.57308061  0.27650855  0.65904569     0.03100
C1621       C  0.65114323  0.26039046  0.60884460     0.37800
C1622       C  0.56495590  0.31773077  0.70245302     0.37700
C1623       C  0.54013013  0.26090612  0.66737535     0.36200
C1624       C  0.67420773  0.31718284  0.64545214     0.36200
N1625       N  0.51399547  0.24848429  0.67430239    -0.38700
N1626       N  0.70253539  0.32587193  0.64213524    -0.38700
N1627       N  0.54961359  0.32620342  0.72414098    -0.38100
N1628       N  0.66986971  0.24851438  0.59091466    -0.38100
C1629       C  0.60283288  0.42321084  0.56944445    -0.04800
C1630       C  0.58780996  0.44641675  0.54840719    -0.01900
C1631       C  0.57492574  0.43405465  0.51966667     0.03100
C1632       C  0.57929125  0.39880043  0.51073457    -0.04800
C1633       C  0.59750864  0.37659726  0.53083312    -0.01900
C1634       C  0.60972181  0.38913585  0.55954501     0.03100
C1635       C  0.58706886  0.48325913  0.55545878     0.37800
C1636       C  0.60508269  0.34102896  0.02193366     0.37700
C1637       C  0.63343338  0.36847277  0.57709962     0.36200
C1638       C  0.55612754  0.45760095  0.50000241     0.36200
N1639       N  0.65370671  0.35239475  0.58995848    -0.38700
N1640       N  0.54102896  0.47644797  0.98446962    -0.38700
N1641       N  0.61112584  0.31262686  0.01510893    -0.38100
N1642       N  0.58721909  0.51283392  0.56042647    -0.38100
C1643       C  0.56664349  0.42155882  0.76064258    -0.04800
C1644       C  0.53516767  0.40289388  0.76225338    -0.01900
C1645       C  0.52366450  0.38985120  0.79111402     0.03100
C1646       C  0.54101642  0.39979250  0.81860026    -0.04800
C1647       C  0.56811302  0.42477899  0.81679521    -0.01900
C1648       C  0.58319003  0.43202720  0.78817512     0.03100
C1649       C  0.51557540  0.39597750  0.73426276     0.37800
C1650       C  0.58187577  0.44287842  0.84386567     0.37700
C1651       C  0.61755612  0.44704328  0.78785449     0.36200
C1652       C  0.49361494  0.36731038  0.79258669     0.36200
N1653       N  0.64558697  0.45724118  0.78931069    -0.38700
N1654       N  0.46962070  0.34927112  0.79375217    -0.38700
N1655       N  0.59330787  0.45866783  0.86445133    -0.38100
N1656       N  0.49985259  0.39079440  0.71188302    -0.38100
C1657       C  0.02644512  0.10464538  0.89063742    -0.04800
C1658       C  0.03515900  0.10196892  0.85854304    -0.01900
C1659       C  0.05899492  0.07697337  0.84815513     0.03100
C1660       C  0.07731858  0.05726318  0.86969587    -0.04800
C1661       C  0.07258100  0.06400073  0.90178146    -0.01900
C1662       C  0.04624265  0.08627977  0.91217704     0.03100
C1663       C  0.01949909  0.12429843  0.83573766     0.37800
C1664       C  0.09520447  0.04880184  0.92444015     0.37700
C1665       C  0.04034185  0.09111687  0.94512323     0.36200
C1666       C  0.06384457  0.07068446  0.81523328     0.36200
N1667       N  0.03583010  0.09498784  0.97143801    -0.38700
N1668       N  0.06751462  0.06558799  0.78896515    -0.38700
N1669       N  0.11317675  0.03825754  0.94344834    -0.38100
N1670       N  0.00773207  0.14229359  0.81729872    -0.38100
C1671       C  0.41847976  0.03880053  0.64736873    -0.04800
C1672       C  0.45208988  0.02795923  0.63911051    -0.01900
C1673       C  0.47476999  0.05063000  0.62319856     0.03100
C1674       C  0.46468092  0.08487615  0.61598982    -0.04800
C1675       C  0.43159390  0.09600725  0.62525531    -0.01900
C1676       C  0.40874053  0.07316465  0.64072831     0.03100
C1677       C  0.46361709  0.99317335  0.64622237     0.37800
C1678       C  0.42081345  0.13117364  0.61894463     0.37700
C1679       C  0.37537317  0.08549754  0.65069596     0.36200
C1680       C  0.50904982  0.03869029  0.61539162     0.36200
N1681       N  0.34877970  0.09525951  0.65876036    -0.38700
N1682       N  0.53629494  0.02902000  0.60922546    -0.38700
N1683       N  0.41225080  0.15929568  0.61418028    -0.38100
N1684       N  0.47312040  0.96560791  0.65199329    -0.38100
C1685       C  0.21346378  0.99318003  0.77812420    -0.04800
C1686       C  0.20454537  0.99591368  0.74641525    -0.01900
C1687       C  0.23030024  0.99528955  0.72315077     0.03100
C1688       C  0.26538199  0.99221243  0.73116833    -0.04800
C1689       C  0.27461975  0.99348514  0.76277488    -0.01900
C1690       C  0.24891504  0.99437358  0.78614433     0.03100
C1691       C  0.16865369  0.99843293  0.73761179     0.37800
C1692       C  0.31064348  0.99133372  0.77125649     0.37700
C1693       C  0.25939211  0.99393770  0.81833818     0.36200
C1694       C  0.22043824  0.99568298  0.69075745     0.36200
N1695       N  0.26839729  0.99390072  0.84388463    -0.38700
N1696       N  0.21225170  0.99613806  0.66498289    -0.38700
N1697       N  0.33937025  0.98957227  0.77802406    -0.38100
N1698       N  0.14002074  0.00053005  0.73062208    -0.38100
C1699       C  0.94739806  0.60033499  0.89441526    -0.04800
C1700       C  0.93774571  0.60024600  0.86267963    -0.01900
C1701       C  0.91168290  0.57734233  0.85160047     0.03100
C1702       C  0.89318386  0.55615881  0.87233278    -0.04800
C1703       C  0.89902566  0.56093983  0.90471574    -0.01900
C1704       C  0.92734728  0.58113456  0.91546027     0.03100
C1705       C  0.95387867  0.62395909  0.84106077     0.37800
C1706       C  0.87554734  0.54647290  0.92739544     0.37700
C1707       C  0.93602040  0.58197355  0.94818107     0.36200
C1708       C  0.90241771  0.57723151  0.81905831     0.36200
N1709       N  0.94300410  0.58245774  0.97426469    -0.38700
N1710       N  0.89482929  0.57793358  0.79314416    -0.38700
N1711       N  0.85668180  0.53656240  0.94619612    -0.38100
N1712       N  0.96499663  0.64284936  0.82278259    -0.38100
C1713       C  0.10001598  0.83783607  0.86412600    -0.04800
C1714       C  0.08930460  0.83146294  0.89471935    -0.01900
C1715       C  0.08204460  0.79743765  0.90452191     0.03100
C1716       C  0.08349268  0.76918148  0.88326448    -0.04800
C1717       C  0.09598660  0.77533688  0.85295438    -0.01900
C1718       C  0.10358917  0.80964681  0.84325494     0.03100
C1719       C  0.08615214  0.85963569  0.91686628     0.37800
C1720       C  0.10516889  0.74634930  0.83313799     0.37700
C1721       C  0.11483858  0.81603607  0.81171551     0.36200
C1722       C  0.07529006  0.79187504  0.93725027     0.36200
N1723       N  0.12362132  0.82125400  0.78651820    -0.38700
N1724       N  0.07135542  0.78796058  0.96358643    -0.38700
N1725       N  0.11374345  0.72345231  0.81753502    -0.38100
N1726       N  0.08285161  0.88057401  0.93590635    -0.38100
C1727       C  0.96036227  0.93878790  0.61563753    -0.04800
C1728       C  0.96762619  0.97511163  0.61811443    -0.01900
C1729       C  0.94491501  0.99742213  0.63371351     0.03100
C1730       C  0.91272352  0.98491151  0.64422166    -0.04800
C1731       C  0.90395490  0.94952045  0.63954876    -0.01900
C1732       C  0.92785607  0.92637815  0.62600032     0.03100
C1733       C  0.99808805  0.99041932  0.60378240     0.37800
C1734       C  0.87052719  0.93674348  0.64954569     0.37700
C1735       C  0.91886940  0.88984895  0.62339633     0.36200
C1736       C  0.95432485  0.03392063  0.63744732     0.36200
N1737       N  0.91146892  0.86071916  0.62137584    -0.38700
N1738       N  0.96196720  0.06290419  0.64042945    -0.38700
N1739       N  0.84378879  0.92673774  0.65753384    -0.38100
N1740       N  0.02224596  0.00284500  0.59248639    -0.38100
C1741       C  0.17235051  0.88854493  0.60513788    -0.04800
C1742       C  0.19316952  0.86452511  0.62109143    -0.01900
C1743       C  0.22617804  0.87445277  0.63218248     0.03100
C1744       C  0.23962659  0.90823113  0.62657062    -0.04800
C1745       C  0.22036010  0.93098418  0.60793040    -0.01900
C1746       C  0.18691515  0.92175941  0.59806241     0.03100
C1747       C  0.18054612  0.82999698  0.62824133     0.37800
C1748       C  0.23492780  0.96416458  0.59818679     0.37700
C1749       C  0.16780593  0.94750389  0.58086860     0.36200
C1750       C  0.24540361  0.84993572  0.65060228     0.36200
N1751       N  0.15284098  0.96842445  0.56749684    -0.38700
N1752       N  0.26061864  0.83032919  0.66527416    -0.38700
N1753       N  0.24645476  0.99053914  0.59037842    -0.38100
N1754       N  0.17180903  0.80238254  0.63534100    -0.38100
C1755       C  0.00132046  0.78602158  0.53094489    -0.04800
C1756       C  0.00258372  0.75061366  0.53927273    -0.01900
C1757       C  0.00568595  0.72461898  0.51614205     0.03100
C1758       C  0.00576847  0.73365654  0.98443135    -0.04800
C1759       C  0.99648164  0.76796998  0.97641611    -0.01900
C1760       C  0.99581872  0.79429314  0.49949445     0.03100
C1761       C  0.00294837  0.74072855  0.57154235     0.37800
C1762       C  0.99046730  0.77719007  0.94434329     0.37700
C1763       C  0.99180420  0.83028686  0.49065439     0.36200
C1764       C  0.00969288  0.68862893  0.52506440     0.36200
N1765       N  0.98891001  0.85901142  0.98353723    -0.38700
N1766       N  0.01293492  0.65994575  0.53219066    -0.38700
N1767       N  0.98554359  0.78463091  0.91879964    -0.38100
N1768       N  0.00257211  0.73194116  0.59709144    -0.38100
C1769       C  0.08083436  0.92827895  0.75488357    -0.04800
C1770       C  0.10422927  0.91037589  0.73529512    -0.01900
C1771       C  0.09290316  0.89564731  0.70749341     0.03100
C1772       C  0.06000337  0.90289448  0.69614775    -0.04800
C1773       C  0.03739395  0.92355275  0.71391293    -0.01900
C1774       C  0.04763467  0.93589160  0.74359884     0.03100
C1775       C  0.14039641  0.90660538  0.74324129     0.37800
C1776       C  0.00386040  0.93216122  0.70174035     0.37700
C1777       C  0.02421022  0.95638066  0.76215761     0.36200
C1778       C  0.11491954  0.87153637  0.69104270     0.36200
N1779       N  0.00560657  0.97301930  0.77684031    -0.38700
N1780       N  0.13228492  0.85185143  0.67840750    -0.38700
N1781       N  0.97696160  0.93905774  0.69231261    -0.38100
N1782       N  0.16921288  0.90292936  0.74892017    -0.38100
C1783       C  0.10140445  0.95509304  0.94915067    -0.04800
C1784       C  0.06813881  0.95943630  0.96157797    -0.01900
C1785       C  0.05998529  0.94602029  0.99106084     0.03100
C1786       C  0.08518786  0.92795961  0.50794921    -0.04800
C1787       C  0.11932983  0.92648590  0.49638156    -0.01900
C1788       C  0.12747526  0.94085694  0.96750448     0.03100
C1789       C  0.04236291  0.97755323  0.94383051     0.37800
C1790       C  0.14619748  0.90851521  0.51306958     0.37700
C1791       C  0.16247413  0.93858957  0.95616014     0.36200
C1792       C  0.02512291  0.94862779  0.00276026     0.36200
N1793       N  0.19088054  0.93616413  0.94863259    -0.38700
N1794       N  0.99728121  0.95066349  0.01205007    -0.38700
N1795       N  0.16779846  0.89366598  0.52553963    -0.38100
N1796       N  0.02199019  0.99237298  0.92975777    -0.38100
C1797       C  0.01469567  0.43702632  0.61239959    -0.04800
C1798       C  0.04386071  0.42344982  0.62763581    -0.01900
C1799       C  0.06751786  0.44615541  0.64277653     0.03100
C1800       C  0.06109154  0.48212309  0.64434794    -0.04800
C1801       C  0.03219706  0.49550800  0.62875634    -0.01900
C1802       C  0.01109338  0.47346981  0.61082387     0.03100
C1803       C  0.04944996  0.38633481  0.62834022     0.37800
C1804       C  0.02388012  0.53214567  0.63060899     0.37700
C1805       C  0.98621666  0.48863598  0.58986647     0.36200
C1806       C  0.09751848  0.43240698  0.65814174     0.36200
N1807       N  0.96672381  0.50076946  0.57296094    -0.38700
N1808       N  0.12143623  0.42151713  0.67050964    -0.38700
N1809       N  0.01672325  0.56118950  0.63214471    -0.38100
N1810       N  0.05405142  0.35671641  0.62882890    -0.38100
C1811       C  0.04616955  0.61990953  0.81413852    -0.04800
C1812       C  0.05234422  0.64667406  0.79268973    -0.01900
C1813       C  0.06715850  0.63870784  0.76392482     0.03100
C1814       C  0.07137139  0.60372543  0.75494074    -0.04800
C1815       C  0.05944032  0.57682579  0.77422659    -0.01900
C1816       C  0.04772076  0.58484740  0.80429601     0.03100
C1817       C  0.04459981  0.68247028  0.80038683     0.37800
C1818       C  0.05990870  0.54110112  0.76337741     0.37700
C1819       C  0.03750934  0.55719807  0.82515246     0.36200
C1820       C  0.08069975  0.66675340  0.74510341     0.36200
N1821       N  0.02936830  0.53522434  0.84187420    -0.38700
N1822       N  0.09184428  0.68990203  0.73124617    -0.38700
N1823       N  0.05983938  0.51261277  0.75462809    -0.38100
N1824       N  0.03753950  0.71089138  0.80616734    -0.38100
C1825       C  0.10932352  0.57255058  0.56345039    -0.04800
C1826       C  0.12158336  0.60469561  0.55283817    -0.01900
C1827       C  0.10748584  0.61966251  0.52622027     0.03100
C1828       C  0.08537785  0.59989694  0.50618104    -0.04800
C1829       C  0.07553370  0.56593127  0.51544265    -0.01900
C1830       C  0.08636540  0.55297347  0.54455991     0.03100
C1831       C  0.14952690  0.62226238  0.56897969     0.37800
C1832       C  0.05497233  0.54390251  0.99506422     0.37700
C1833       C  0.07580178  0.51848719  0.55407736     0.36200
C1834       C  0.11482568  0.65625191  0.52089443     0.36200
N1835       N  0.06770991  0.49060941  0.56102248    -0.38700
N1836       N  0.12061092  0.68544287  0.51694106    -0.38700
N1837       N  0.03877750  0.52612576  0.97878164    -0.38100
N1838       N  0.17284952  0.63551552  0.58096163    -0.38100
C1839       C  0.09409073  0.68776193  0.65108250    -0.04800
C1840       C  0.06236534  0.70197540  0.66029279    -0.01900
C1841       C  0.05430499  0.73661664  0.65261167     0.03100
C1842       C  0.07589108  0.75563118  0.63211900    -0.04800
C1843       C  0.10684017  0.74007988  0.62167959    -0.01900
C1844       C  0.11714544  0.70799424  0.63357321     0.03100
C1845       C  0.03787180  0.68082404  0.67741560     0.37800
C1846       C  0.12779362  0.75571630  0.59751267     0.37700
C1847       C  0.15209081  0.69672238  0.62846587     0.36200
C1848       C  0.02258831  0.75141038  0.66409169     0.36200
N1849       N  0.18060348  0.68962523  0.62473867    -0.38700
N1850       N  0.99716973  0.76300448  0.67322743    -0.38700
N1851       N  0.14428590  0.76746836  0.57775763    -0.38100
N1852       N  0.01827868  0.66390910  0.69097326    -0.38100
C1853       C  0.45180346  0.43172699  0.90209793    -0.04800
C1854       C  0.41708083  0.42228029  0.89631242    -0.01900
C1855       C  0.39523916  0.44440404  0.87936583     0.03100
C1856       C  0.40772181  0.47648235  0.86752903    -0.04800
C1857       C  0.44296115  0.48519927  0.87226975    -0.01900
C1858       C  0.46441541  0.46353585  0.89004549     0.03100
C1859       C  0.40376695  0.38939193  0.90770563     0.37800
C1860       C  0.45747846  0.51710968  0.85980518     0.37700
C1861       C  0.49996075  0.47401116  0.89524850     0.36200
C1862       C  0.36010180  0.43325716  0.87314197     0.36200
N1863       N  0.52818484  0.48271291  0.89945768    -0.38700
N1864       N  0.33212234  0.42424781  0.86812078    -0.38700
N1865       N  0.46919846  0.54254309  0.85003477    -0.38100
N1866       N  0.39322788  0.36309478  0.91668756    -0.38100
C1867       C  0.23216931  0.61129592  0.87642120    -0.04800
C1868       C  0.20491742  0.61034711  0.85486181    -0.01900
C1869       C  0.17129227  0.61833011  0.86442422     0.03100
C1870       C  0.16492734  0.62884587  0.89527419    -0.04800
C1871       C  0.19268596  0.63247478  0.91619223    -0.01900
C1872       C  0.22627460  0.62372734  0.90677698     0.03100
C1873       C  0.21160265  0.60286823  0.82237316     0.37800
C1874       C  0.18662300  0.64467552  0.94759489     0.37700
C1875       C  0.25476140  0.62881644  0.92800943     0.36200
C1876       C  0.14364571  0.61598246  0.84206794     0.36200
N1877       N  0.27725439  0.63406259  0.94504045    -0.38700
N1878       N  0.12278514  0.61364145  0.82307958    -0.38700
N1879       N  0.18198194  0.65444261  0.97266677    -0.38100
N1880       N  0.21629452  0.59787526  0.79622636    -0.38100
C1881       C  0.21261180  0.52395207  0.73042947    -0.04800
C1882       C  0.20260546  0.51553942  0.76095575    -0.01900
C1883       C  0.22739244  0.51488816  0.78508716     0.03100
C1884       C  0.26240833  0.52225639  0.77871131    -0.04800
C1885       C  0.27286312  0.52573749  0.74754446    -0.01900
C1886       C  0.24811674  0.52689126  0.72354568     0.03100
C1887       C  0.16646882  0.51051613  0.76796094     0.37800
C1888       C  0.30902201  0.53094952  0.74045920     0.37700
C1889       C  0.25916267  0.53402093  0.69208214     0.36200
C1890       C  0.21639481  0.51032868  0.81692400     0.36200
N1891       N  0.26844149  0.53975502  0.66712529    -0.38700
N1892       N  0.20755920  0.50690229  0.84235175    -0.38700
N1893       N  0.33784206  0.53498971  0.73463644    -0.38100
N1894       N  0.13762243  0.50633201  0.77356798    -0.38100
C1895       C  0.51647823  0.58260932  0.61068152    -0.04800
C1896       C  0.54318149  0.59276224  0.63130092    -0.01900
C1897       C  0.56541593  0.56759646  0.64410411     0.03100
C1898       C  0.56062764  0.53179884  0.63705694    -0.04800
C1899       C  0.53430417  0.52211021  0.61547208    -0.01900
C1900       C  0.51335833  0.54731937  0.60191468     0.03100
C1901       C  0.54613669  0.62869383  0.64135484     0.37800
C1902       C  0.52762903  0.48599769  0.60694061     0.37700
C1903       C  0.48690345  0.53623222  0.57997566     0.36200
C1904       C  0.59157485  0.57854611  0.66618456     0.36200
N1905       N  0.46564417  0.52666178  0.56307200    -0.38700
N1906       N  0.61236626  0.58734144  0.68387880    -0.38700
N1907       N  0.52184793  0.45739322  0.60006612    -0.38100
N1908       N  0.54842034  0.65732496  0.64953411    -0.38100
C1909       C  0.36470721  0.56073780  0.95062073    -0.04800
C1910       C  0.39898477  0.55867155  0.96200022    -0.01900
C1911       C  0.40753658  0.57147175  0.99179527     0.03100
C1912       C  0.38210402  0.58687119  0.51045299    -0.04800
C1913       C  0.34752386  0.58698938  0.49965622    -0.01900
C1914       C  0.33868043  0.57063666  0.97149439     0.03100
C1915       C  0.42600456  0.54312370  0.94368486     0.37800
C1916       C  0.32108622  0.60674348  0.51539126     0.37700
C1917       C  0.30275319  0.56317062  0.96479893     0.36200
C1918       C  0.44336771  0.57253233  0.00135667     0.36200
N1919       N  0.27414164  0.55648166  0.95991644    -0.38700
N1920       N  0.47212456  0.57365221  0.00826582    -0.38700
N1921       N  0.29989086  0.62335575  0.52683005    -0.38100
N1922       N  0.44860172  0.53100523  0.93018256    -0.38100
C1923       C  0.39863815  0.60604087  0.75845387    -0.04800
C1924       C  0.39545735  0.64012696  0.74708863    -0.01900
C1925       C  0.40787196  0.64842865  0.71738848     0.03100
C1926       C  0.42275783  0.62249317  0.69869290    -0.04800
C1927       C  0.42730147  0.58875577  0.71061617    -0.01900
C1928       C  0.41582994  0.58075480  0.74077851     0.03100
C1929       C  0.37802741  0.66643131  0.76531702     0.37800
C1930       C  0.44203874  0.56180670  0.69123510     0.37700
C1931       C  0.41981934  0.54605763  0.75300433     0.36200
C1932       C  0.40279008  0.68301480  0.70528158     0.36200
N1933       N  0.42280382  0.51844989  0.76296316    -0.38700
N1934       N  0.39828660  0.71074543  0.69616007    -0.38700
N1935       N  0.45354603  0.54016747  0.67577743    -0.38100
N1936       N  0.36405031  0.68776618  0.77933691    -0.38100
C1937       C  0.23577797  0.61597045  0.63280569    -0.04800
C1938       C  0.25349971  0.64536345  0.64509272    -0.01900
C1939       C  0.28676772  0.65404974  0.63420944     0.03100
C1940       C  0.30346994  0.63182895  0.61285757    -0.04800
C1941       C  0.28558524  0.60220972  0.60106154    -0.01900
C1942       C  0.25112440  0.59628823  0.60891742     0.03100
C1943       C  0.23874115  0.66548950  0.67028347     0.37800
C1944       C  0.30270721  0.57588627  0.58252073     0.37700
C1945       C  0.23177890  0.56925900  0.59253047     0.36200
C1946       C  0.30483793  0.68393368  0.64731364     0.36200
N1947       N  0.21663836  0.54774318  0.57926131    -0.38700
N1948       N  0.31911302  0.70775518  0.65796079    -0.38700
N1949       N  0.31605295  0.55416298  0.56847441    -0.38100
N1950       N  0.22702682  0.68152464  0.69038513    -0.38100
C1951       C  0.39856020  0.76342920  0.62831906    -0.04800
C1952       C  0.36860248  0.77921439  0.61620841    -0.01900
C1953       C  0.36172301  0.81424596  0.62273936     0.03100
C1954       C  0.38315308  0.83323910  0.64300477    -0.04800
C1955       C  0.41208969  0.81754354  0.65633592    -0.01900
C1956       C  0.42006199  0.78282137  0.64883252     0.03100
C1957       C  0.34385593  0.75947206  0.59776159     0.37800
C1958       C  0.43413162  0.83752010  0.67719684     0.37700
C1959       C  0.45092690  0.76777005  0.66162737     0.36200
C1960       C  0.33289081  0.83107779  0.60798823     0.36200
N1961       N  0.47551958  0.75584844  0.67198598    -0.38700
N1962       N  0.31015112  0.84445030  0.59584209    -0.38700
N1963       N  0.45178826  0.85350973  0.69370346    -0.38100
N1964       N  0.32362587  0.74418202  0.58325461    -0.38100
C1965       C  0.52025026  0.93550209  0.89574210    -0.04800
C1966       C  0.51613544  0.97212187  0.89536572    -0.01900
C1967       C  0.53871088  0.99346062  0.87828599     0.03100
C1968       C  0.56804136  0.97937895  0.86379045    -0.04800
C1969       C  0.57380705  0.94329840  0.86592024    -0.01900
C1970       C  0.54972635  0.92132498  0.88126729     0.03100
C1971       C  0.48810802  0.98839919  0.91217763     0.37800
C1972       C  0.60361572  0.92854224  0.85082314     0.37700
C1973       C  0.55476256  0.88410699  0.88093858     0.36200
C1974       C  0.53139979  0.03026139  0.87598834     0.36200
N1975       N  0.55882763  0.85439274  0.88066166    -0.38700
N1976       N  0.52502266  0.05944876  0.87424838    -0.38700
N1977       N  0.62726701  0.91667167  0.83859280    -0.38100
N1978       N  0.46570353  0.00176334  0.92506624    -0.38100
C1979       C  0.39827740  0.75468452  0.88199537    -0.04800
C1980       C  0.36512855  0.74101716  0.88906410    -0.01900
C1981       C  0.35610510  0.70671825  0.88057116     0.03100
C1982       C  0.38028070  0.68510531  0.86602430    -0.04800
C1983       C  0.41314051  0.69853941  0.85851863    -0.01900
C1984       C  0.42209682  0.73325209  0.86625693     0.03100
C1985       C  0.33981471  0.76198817  0.90510591     0.37800
C1986       C  0.43744506  0.67678626  0.84212471     0.37700
C1987       C  0.45630134  0.74626177  0.85897629     0.36200
C1988       C  0.32158510  0.69390979  0.88673829     0.36200
N1989       N  0.48358323  0.75665396  0.85311969    -0.38700
N1990       N  0.29367428  0.68477776  0.89158279    -0.38700
N1991       N  0.45670552  0.65940386  0.82892785    -0.38100
N1992       N  0.31943793  0.77815090  0.91817738    -0.38100
C1993       C  0.45399725  0.78751345  0.98426763    -0.04800
C1994       C  0.42276003  0.77257406  0.99516457    -0.01900
C1995       C  0.42293390  0.74357888  0.51460700     0.03100
C1996       C  0.45433605  0.73008322  0.52582524    -0.04800
C1997       C  0.48565567  0.74503013  0.51540680    -0.01900
C1998       C  0.48549562  0.77326907  0.99420953     0.03100
C1999       C  0.38954590  0.78653873  0.98637265     0.37800
C2000       C  0.51786134  0.73018795  0.52518387     0.37700
C2001       C  0.51760881  0.78830279  0.98344311     0.36200
C2002       C  0.38993690  0.72759966  0.52243967     0.36200
N2003       N  0.54329958  0.80036914  0.97491604    -0.38700
N2004       N  0.36343530  0.71497800  0.52778741    -0.38700
N2005       N  0.54356420  0.71806917  0.53279938    -0.38100
N2006       N  0.36282156  0.79736145  0.98009211    -0.38100
C2007       C  0.30481926  0.89358465  0.90013411    -0.04800
C2008       C  0.28374052  0.87229635  0.88101666    -0.01900
C2009       C  0.25058274  0.88335324  0.87252050     0.03100
C2010       C  0.23870378  0.91648313  0.88191787    -0.04800
C2011       C  0.25936569  0.93744179  0.90155432    -0.01900
C2012       C  0.29188686  0.92601358  0.91090524     0.03100
C2013       C  0.29686042  0.84040518  0.86773119     0.37800
C2014       C  0.24843988  0.97205615  0.91065769     0.37700
C2015       C  0.31224011  0.94898142  0.93082007     0.36200
C2016       C  0.22884015  0.86052898  0.85376119     0.36200
N2017       N  0.32818416  0.96788778  0.94627967    -0.38700
N2018       N  0.21153375  0.84238612  0.83876625    -0.38700
N2019       N  0.23996223  0.99967272  0.91784991    -0.38100
N2020       N  0.30681842  0.81512217  0.85640737    -0.38100
C2021       C  0.42556089  0.89109002  0.81088293    -0.04800
C2022       C  0.44006159  0.91976160  0.79513987    -0.01900
C2023       C  0.42841728  0.92805002  0.76511846     0.03100
C2024       C  0.40184763  0.90801416  0.75131527    -0.04800
C2025       C  0.38963978  0.87762340  0.76603829    -0.01900
C2026       C  0.40173755  0.86904625  0.79564576     0.03100
C2027       C  0.46586509  0.94146215  0.81028073     0.37800
C2028       C  0.36413014  0.85538810  0.75095268     0.37700
C2029       C  0.38885828  0.83801956  0.81085246     0.36200
C2030       C  0.44227696  0.95817907  0.74921155     0.36200
N2031       N  0.37863107  0.81305640  0.82262893    -0.38700
N2032       N  0.45330392  0.98214335  0.73638437    -0.38700
N2033       N  0.34373262  0.83765370  0.73904997    -0.38100
N2034       N  0.48657355  0.95886616  0.82211648    -0.38100
C2035       C  0.36707610  0.95593766  0.56017199    -0.04800
C2036       C  0.39703539  0.96873019  0.54515430    -0.01900
C2037       C  0.40588641  0.95713041  0.51496832     0.03100
C2038       C  0.38376012  0.93405242  0.49867521    -0.04800
C2039       C  0.35119138  0.92558344  0.51215130    -0.01900
C2040       C  0.34345137  0.93565254  0.54277372     0.03100
C2041       C  0.41817793  0.99513217  0.55999105     0.37800
C2042       C  0.32524054  0.90552269  0.99518792     0.37700
C2043       C  0.31164355  0.92305356  0.55649946     0.36200
C2044       C  0.43852060  0.96788760  0.50164765     0.36200
N2045       N  0.28604523  0.91233514  0.56642071    -0.38700
N2046       N  0.46477134  0.97659874  0.49149800    -0.38700
N2047       N  0.30439763  0.88934457  0.98220044    -0.38100
N2048       N  0.43515850  0.01698859  0.57061139    -0.38100
loop_ 
_geom_bond_atom_site_label_1 
_geom_bond_atom_site_label_2 
_geom_bond_distance 
_geom_bond_site_symmetry_2 
_ccdc_geom_bond_type 
O1          Cr19   2.013       .  S
O1            C9   1.270       .  A
O2          Cr19   1.960       .  S
O2            C3   1.256       .  A
C3            O4   1.268       .  A
C3          C941   1.501       .  S
O4          Cr20   2.010       .  S
O5          Cr20   2.056       .  S
O5            C6   1.274       .  A
C6            O7   1.254       .  A
C6          C969   1.499       .  S
O7          Cr21   1.964       .  S
O8          Cr21   1.962       .  S
O8            C9   1.256       .  A
C9         C2038   1.502       .  S
O10         Cr19   1.967       .  S
O10          C18   1.257       .  A
O11         Cr19   1.960       .  S
O11          C12   1.260       .  A
C12          O13   1.270       .  A
C12         C997   1.472       .  S
O13         Cr20   2.022       .  S
O14         Cr20   1.991       .  S
O14          C15   1.260       .  A
C15          O16   1.257       .  A
C15         C955   1.494       .  S
O16         Cr21   1.989       .  S
O17         Cr21   2.004       .  S
O17          C18   1.267       .  A
C18         C983   1.493       .  S
Cr19         O22   1.766       .  S
Cr20         O22   1.792       .  S
Cr21         O22   1.760       .  S
O23         Cr41   1.999       .  S
O23          C31   1.265       .  A
O24         Cr41   1.971       .  S
O24          C25   1.260       .  A
C25          O26   1.267       .  A
C25         C871   1.493       .  S
O26         Cr42   2.003       .  S
O27         Cr42   2.068       .  S
O27          C28   1.278       .  A
C28          O29   1.252       .  A
C28         C972   1.499       .  S
O29         Cr43   1.961       .  S
O30         Cr43   1.972       .  S
O30          C31   1.254       .  A
C31         C888   1.487       .  S
O32         Cr41   1.984       .  S
O32          C40   1.264       .  A
O33         Cr41   1.951       .  S
O33          C34   1.257       .  A
C34          O35   1.272       .  A
C34         C902   1.473       .  S
O35         Cr42   2.025       .  S
O36         Cr42   1.990       .  S
O36          C37   1.258       .  A
C37          O38   1.255       .  A
C37         C927   1.492       .  S
O38         Cr43   1.989       .  S
O39         Cr43   1.983       .  S
O39          C40   1.264       .  A
C40         C916   1.484       .  S
Cr41         O44   1.760       .  S
Cr42         O44   1.783       .  S
Cr43         O44   1.757       .  S
O45         Cr63   1.962       .  S
O45          C53   1.257       .  A
O46         Cr63   1.998       .  S
O46          C47   1.265       .  A
C47          O48   1.270       .  A
C47         C860   1.492       .  S
O48         Cr64   2.009       .  S
O49         Cr64   2.010       .  S
O49          C50   1.264       .  A
C50          O51   1.262       .  A
C50         C832   1.510       .  S
O51         Cr65   1.984       .  S
O52         Cr65   2.004       .  S
O52          C53   1.263       .  A
C53         C899   1.472       .  S
O54         Cr63   1.993       .  S
O54          C62   1.260       .  A
O55         Cr63   1.974       .  S
O55          C56   1.255       .  A
C56          O57   1.264       .  A
C56         C843   1.477       .  S
O57         Cr64   2.013       .  S
O58         Cr64   1.987       .  S
O58          C59   1.268       .  A
C59          O60   1.264       .  A
C59         C885   1.500       .  S
O60         Cr65   1.995       .  S
O61         Cr65   1.984       .  S
O61          C62   1.260       .  A
C62         C958   1.481       .  S
Cr63         O66   1.775       .  S
Cr64         O66   1.784       .  S
Cr65         O66   1.781       .  S
O67         Cr85   1.968       .  S
O67          C75   1.259       .  A
O68         Cr85   2.006       .  S
O68          C69   1.266       .  A
C69          O70   1.270       .  A
C69         C857   1.494       .  S
O70         Cr86   2.011       .  S
O71         Cr86   2.010       .  S
O71          C72   1.264       .  A
C72          O73   1.257       .  A
C72         C776   1.482       .  S
O73         Cr87   1.969       .  S
O74         Cr87   2.001       .  S
O74          C75   1.263       .  A
C75         C790   1.465       .  S
O76         Cr85   2.007       .  S
O76          C84   1.263       .  A
O77         Cr85   1.971       .  S
O77          C78   1.257       .  A
C78          O79   1.264       .  A
C78         C913   1.482       .  S
O79         Cr86   1.991       .  S
O80         Cr86   1.997       .  S
O80          C81   1.265       .  A
C81          O82   1.261       .  A
C81         C801   1.488       .  S
O82         Cr87   2.008       .  S
O83         Cr87   1.980       .  S
O83          C84   1.259       .  A
C84         C815   1.481       .  S
Cr85         O88   1.769       .  S
Cr86         O88   1.777       .  S
Cr87         O88   1.771       .  S
O89        Cr107   1.976       .  S
O89          C97   1.261       .  A
O90        Cr107   1.961       .  S
O90          C91   1.254   1_455  A
C91          O92   1.268       .  A
C91         C703   1.506       .  S
O92        Cr108   2.012   1_655  S
O93        Cr108   2.039       .  S
O93          C94   1.274       .  A
C94          O95   1.260       .  A
C94         C731   1.495       .  S
O95        Cr109   1.966       .  S
O96        Cr109   1.986       .  S
O96          C97   1.263       .  A
C97         C762   1.482       .  S
O98        Cr107   1.985       .  S
O98         C106   1.260       .  A
O99        Cr107   1.936       .  S
O99         C100   1.258       .  A
C100        O101   1.270       .  A
C100        C748   1.470       .  S
O101       Cr108   2.028       .  S
O102       Cr108   2.002       .  S
O102        C103   1.264       .  A
C103        O104   1.258       .  A
C103        C818   1.499       .  S
O104       Cr109   1.983       .  S
O105       Cr109   2.010       .  S
O105        C106   1.266       .  A
C106        C717   1.510       .  S
Cr107       O110   1.763       .  S
Cr108       O110   1.784       .  S
Cr109       O110   1.766       .  S
O111       Cr129   2.021       .  S
O111        C119   1.265       .  A
O112       Cr129   2.001       .  S
O112        C113   1.264   1_455  A
C113        O114   1.262       .  A
C113        C675   1.492       .  S
O114       Cr130   1.987   1_655  S
O115       Cr130   2.024       .  S
O115        C116   1.275       .  A
C116        O117   1.270       .  A
C116        C734   1.502       .  S
O117       Cr131   1.980       .  S
O118       Cr131   1.973       .  S
O118        C119   1.252       .  A
C119       C1828   1.506       .  S
O120       Cr129   2.025       .  S
O120        C128   1.273       .  A
O121       Cr129   1.958       .  S
O121        C122   1.260       .  A
C122        O123   1.262       .  A
C122        C787   1.474       .  S
O123       Cr130   1.980       .  S
O124       Cr130   2.006       .  S
O124        C125   1.257       .  A
C125        O126   1.250       .  A
C125        C692   1.494       .  S
O126       Cr131   1.969       .  S
O127       Cr131   1.975       .  S
O127        C128   1.263       .  A
C128        C846   1.479       .  S
Cr129       O132   1.781       .  S
Cr130       O132   1.779       .  S
Cr131       O132   1.770       .  S
O133       Cr151   1.961       .  S
O133        C141   1.260       .  A
O134       Cr151   2.004       .  S
O134        C135   1.265       .  A
C135        O136   1.271       .  A
C135        C664   1.494       .  S
O136       Cr152   2.013       .  S
O137       Cr152   2.014   1_545  S
O137        C138   1.265       .  A
C138        O139   1.255   1_545  A
C138        C647   1.497       .  S
O139       Cr153   1.966       .  S
O140       Cr153   2.013       .  S
O140        C141   1.268       .  A
C141       C1000   1.475       .  S
O142       Cr151   1.994       .  S
O142        C150   1.258       .  A
O143       Cr151   1.977       .  S
O143        C144   1.259       .  A
C144        O145   1.266       .  A
C144        C720   1.501       .  S
O145       Cr152   2.007       .  S
O146       Cr152   1.984       .  S
O146        C147   1.266       .  A
C147        O148   1.268       .  A
C147       C1011   1.498       .  S
O148       Cr153   2.017       .  S
O149       Cr153   1.972       .  S
O149        C150   1.255       .  A
C150        C930   1.469       .  S
Cr151       O154   1.766       .  S
Cr152       O154   1.775       .  S
Cr153       O154   1.775       .  S
O155       Cr173   1.958       .  S
O155        C163   1.249       .  A
O156       Cr173   1.979       .  S
O156        C157   1.266       .  A
C157        O158   1.278       .  A
C157        C661   1.508       .  S
O158       Cr174   2.045       .  S
O159       Cr174   2.001   1_545  S
O159        C160   1.266       .  A
C160        O161   1.259   1_545  A
C160        C636   1.489       .  S
O161       Cr175   1.985       .  S
O162       Cr175   2.017       .  S
O162        C163   1.263       .  A
C163        C745   1.485       .  S
O164       Cr173   1.980       .  S
O164        C172   1.264       .  A
O165       Cr173   1.974       .  S
O165        C166   1.250       .  A
C166        O167   1.255       .  A
C166        C986   1.485       .  S
O167       Cr174   1.981       .  S
O168       Cr174   1.995       .  S
O168        C169   1.266       .  A
C169        O170   1.262       .  A
C169        C759   1.472       .  S
O170       Cr175   1.961       .  S
O171       Cr175   2.027       .  S
O171        C172   1.271       .  A
C172        C689   1.482       .  S
Cr173       O176   1.770       .  S
Cr174       O176   1.774       .  S
Cr175       O176   1.779       .  S
O177       Cr195   1.978       .  S
O177        C185   1.261       .  A
O178       Cr195   1.983       .  S
O178        C179   1.262       .  A
C179        O180   1.267       .  A
C179        C874   1.509       .  S
O180       Cr196   1.995       .  S
O181       Cr196   2.041       .  S
O181        C182   1.275       .  A
C182        O183   1.262       .  A
C182        C577   1.499       .  S
O183       Cr197   1.977       .  S
O184       Cr197   1.993       .  S
O184        C185   1.264       .  A
C185        C619   1.472       .  S
O186       Cr195   1.996       .  S
O186        C194   1.264       .  A
O187       Cr195   1.975       .  S
O187        C188   1.262       .  A
C188        O189   1.266       .  A
C188        C605   1.488       .  S
O189       Cr196   2.016       .  S
O190       Cr196   1.969       .  S
O190        C191   1.255       .  A
C191        O192   1.258       .  A
C191        C563   1.489       .  S
O192       Cr197   1.996       .  S
O193       Cr197   1.997       .  S
O193        C194   1.262       .  A
C194        C594   1.495       .  S
Cr195       O198   1.762       .  S
Cr196       O198   1.776       .  S
Cr197       O198   1.773       .  S
O199       Cr217   2.008       .  S
O199        C207   1.263       .  A
O200       Cr217   1.997       .  S
O200        C201   1.268       .  A
C201        O202   1.262       .  A
C201        C678   1.503       .  S
O202       Cr218   2.009       .  S
O203       Cr218   2.012       .  S
O203        C204   1.271       .  A
C204        O205   1.266       .  A
C204        C580   1.490       .  S
O205       Cr219   1.995       .  S
O206       Cr219   1.976       .  S
O206        C207   1.260       .  A
C207        C507   1.486       .  S
O208       Cr217   1.985       .  S
O208        C216   1.260       .  A
O209       Cr217   1.978       .  S
O209        C210   1.259       .  A
C210        O211   1.271       .  A
C210        C521   1.501       .  S
O211       Cr218   1.999       .  S
O212       Cr218   2.016       .  S
O212        C213   1.262       .  A
C213        O214   1.253       .  A
C213        C549   1.488       .  S
O214       Cr219   1.979       .  S
O215       Cr219   1.983       .  S
O215        C216   1.258       .  A
C216        C538   1.486       .  S
Cr217       O220   1.785       .  S
Cr218       O220   1.786       .  S
Cr219       O220   1.780       .  S
O221       Cr239   1.984       .  S
O221        C229   1.261       .  A
O222       Cr239   1.973       .  S
O222        C223   1.264       .  A
C223        O224   1.277       .  A
C223        C496   1.499       .  S
O224       Cr240   2.042       .  S
O225       Cr240   1.990       .  S
O225        C226   1.259       .  A
C226        O227   1.256       .  A
C226        C773   1.492   1_655  S
O227       Cr241   1.963       .  S
O228       Cr241   1.987       .  S
O228        C229   1.266       .  A
C229        C524   1.487       .  S
O230       Cr239   2.003       .  S
O230        C238   1.267       .  A
O231       Cr239   1.978       .  S
O231        C232   1.255       .  A
C232        O233   1.255       .  A
C232        C479   1.482       .  S
O233       Cr240   1.978       .  S
O234       Cr240   2.033       .  S
O234        C235   1.273       .  A
C235        O236   1.258       .  A
C235        C510   1.483       .  S
O236       Cr241   1.960       .  S
O237       Cr241   1.971       .  S
O237        C238   1.256       .  A
C238        C566   1.490       .  S
Cr239       O242   1.769       .  S
Cr240       O242   1.779       .  S
Cr241       O242   1.771       .  S
O243       Cr261   1.982       .  S
O243        C251   1.265       .  A
O244       Cr261   1.989       .  S
O244        C245   1.265       .  A
C245        O246   1.275       .  A
C245        C493   1.488       .  S
O246       Cr262   2.021       .  S
O247       Cr262   1.975       .  S
O247        C248   1.252       .  A
C248        O249   1.266       .  A
C248        C633   1.501   1_655  S
O249       Cr263   2.007       .  S
O250       Cr263   1.999       .  S
O250        C251   1.266       .  A
C251       C1461   1.496       .  S
O252       Cr261   1.970       .  S
O252        C260   1.254       .  A
O253       Cr261   2.013       .  S
O253        C254   1.263       .  A
C254        O255   1.253       .  A
C254        C535   1.510       .  S
O255       Cr262   1.980       .  S
O256       Cr262   2.008       .  S
O256        C257   1.275       .  A
C257        O258   1.265       .  A
C257        C454   1.502       .  S
O258       Cr263   1.990       .  S
O259       Cr263   1.982       .  S
O259        C260   1.259       .  A
C260        C468   1.490       .  S
Cr261       O264   1.780       .  S
Cr262       O264   1.778       .  S
Cr263       O264   1.786       .  S
O265       Cr283   2.002       .  S
O265        C273   1.266       .  A
O266       Cr283   1.982       .  S
O266        C267   1.259       .  A
C267        O268   1.259       .  A
C267        C944   1.491   1_545  S
O268       Cr284   2.006       .  S
O269       Cr284   2.016       .  S
O269        C270   1.274       .  A
C270        O271   1.269       .  A
C270        C398   1.495       .  S
O271       Cr285   2.008       .  S
O272       Cr285   1.975       .  S
O272        C273   1.263       .  A
C273        C423   1.485       .  S
O274       Cr283   1.973       .  S
O274        C282   1.258       .  A
O275       Cr283   2.007       .  S
O275        C276   1.264       .  A
C276        O277   1.270       .  A
C276        C409   1.488       .  S
O277       Cr284   2.004       .  S
O278       Cr284   1.990       .  S
O278        C279   1.258       .  A
C279        O280   1.261       .  A
C279        C465   1.506       .  S
O280       Cr285   2.000       .  S
O281       Cr285   1.994       .  S
O281        C282   1.259       .  A
C282        C384   1.492       .  S
Cr283       O286   1.775       .  S
Cr284       O286   1.780       .  S
Cr285       O286   1.774       .  S
O287       Cr305   2.006       .  S
O287        C295   1.266       .  A
O288       Cr305   1.979       .  S
O288        C289   1.260       .  A
C289        O290   1.261       .  A
C289        C706   1.487   1_545  S
O290       Cr306   2.000       .  S
O291       Cr306   2.015       .  S
O291        C292   1.274       .  A
C292        O293   1.267       .  A
C292        C395   1.493       .  S
O293       Cr307   2.001       .  S
O294       Cr307   1.969       .  S
O294        C295   1.260       .  A
C295        C451   1.480       .  S
O296       Cr305   1.975       .  S
O296        C304   1.257       .  A
O297       Cr305   2.007       .  S
O297        C298   1.265       .  A
C298        O299   1.268       .  A
C298        C440   1.496       .  S
O299       Cr306   2.003       .  S
O300       Cr306   1.987       .  S
O300        C301   1.257       .  A
C301        O302   1.254       .  A
C301        C367   1.470       .  S
O302       Cr307   1.964       .  S
O303       Cr307   1.988       .  S
O303        C304   1.258       .  A
C304        C482   1.473       .  S
Cr305       O308   1.775       .  S
Cr306       O308   1.782       .  S
Cr307       O308   1.767       .  S
O309       Cr327   1.970       .  S
O309        C317   1.259       .  A
O310       Cr327   1.994       .  S
O310        C311   1.262       .  A
C311        O312   1.271       .  A
C311        C353   1.492       .  S
O312       Cr328   2.022       .  S
O313       Cr328   1.996       .  S
O313        C314   1.263       .  A
C314        O315   1.270       .  A
C314        C829   1.499       .  S
O315       Cr329   1.995       .  S
O316       Cr329   2.006       .  S
O316        C317   1.265       .  A
C317       C1632   1.495       .  S
O318       Cr327   2.005       .  S
O318        C326   1.261       .  A
O319       Cr327   1.971       .  S
O319        C320   1.258       .  A
C320        O321   1.265       .  A
C320        C381   1.501       .  S
O321       Cr328   2.006       .  S
O322       Cr328   2.019       .  S
O322        C323   1.272       .  A
C323        O324   1.253       .  A
C323        C622   1.484       .  S
O324       Cr329   1.970       .  S
O325       Cr329   1.991       .  S
O325        C326   1.258       .  A
C326        C552   1.498       .  S
Cr327       O330   1.771       .  S
Cr328       O330   1.773       .  S
Cr329       O330   1.771       .  S
O331       Cr349   1.975       .  S
O331        C339   1.263       .  A
O332       Cr349   2.003       .  S
O332        C333   1.266       .  A
C333        O334   1.270       .  A
C333        C356   1.490       .  S
O334       Cr350   2.009       .  S
O335       Cr350   2.001       .  S
O335        C336   1.264       .  A
C336        O337   1.263       .  A
C336        C650   1.495       .  S
O337       Cr351   1.980       .  S
O338       Cr351   2.028       .  S
O338        C339   1.270       .  A
C339        C412   1.502       .  S
O340       Cr349   1.994       .  S
O340        C348   1.258       .  A
O341       Cr349   1.986       .  S
O341        C342   1.259       .  A
C342        O343   1.262       .  A
C342        C591   1.501       .  S
O343       Cr350   1.999       .  S
O344       Cr350   2.005       .  S
O344        C345   1.268       .  A
C345        O346   1.267       .  A
C345        C426   1.500       .  S
O346       Cr351   2.012       .  S
O347       Cr351   1.964       .  S
O347        C348   1.255       .  A
C348        C370   1.462       .  S
Cr349       O352   1.768       .  S
Cr350       O352   1.770       .  S
Cr351       O352   1.770       .  S
C353        C358   1.413       .  A
C353       C1378   1.413       .  A
C354        C355   1.416       .  A
C354       C1377   1.413   1_554  A
C354        C359   1.450       .  S
C355        C356   1.414       .  A
C355        C362   1.451       .  S
C356       C1381   1.411       .  A
C357        C358   1.417       .  A
C357       C1380   1.411       .  A
C357        C360   1.450       .  S
C358        C361   1.446       .  S
C359        N366   1.157       .  T
C360        N365   1.157       .  T
C361        N363   1.156       .  T
C362        N364   1.157       .  T
C367        C368   1.412       .  A
C367        C372   1.416       .  A
C368        C369   1.400       .  A
C368        C373   1.454       .  S
C369        C370   1.405       .  A
C369        C376   1.446       .  S
C370        C371   1.407       .  A
C371        C372   1.406       .  A
C371        C374   1.452       .  S
C372        C375   1.451       .  S
C373        N380   1.157       .  T
C374        N379   1.157       .  T
C375        N377   1.157       .  T
C376        N378   1.155       .  T
C381        C382   1.420       .  A
C381        C386   1.419       .  A
C382        C383   1.411       .  A
C382        C387   1.452       .  S
C383        C384   1.414       .  A
C383        C390   1.450       .  S
C384        C385   1.415       .  A
C385        C386   1.410       .  A
C385        C388   1.453       .  S
C386        C389   1.451       .  S
C387        N394   1.157       .  T
C388        N393   1.158       .  T
C389        N391   1.157       .  T
C390        N392   1.157       .  T
C395        C396   1.411       .  A
C395        C400   1.415       .  A
C396        C397   1.419       .  A
C396        C401   1.449       .  S
C397        C398   1.414       .  A
C397        C404   1.446       .  S
C398        C399   1.413       .  A
C399        C400   1.417       .  A
C399        C402   1.450       .  S
C400        C403   1.451       .  S
C401        N408   1.157       .  T
C402        N407   1.157       .  T
C403        N405   1.157       .  T
C404        N406   1.156   1_545  T
C409        C410   1.412       .  A
C409        C414   1.408       .  A
C410       C1435   1.419       .  A
C410        C415   1.450       .  S
C411        C412   1.419   1_556  A
C411       C1434   1.419       .  A
C411        C418   1.449   1_556  S
C412       C1437   1.420   1_554  A
C413        C414   1.410       .  A
C413       C1436   1.420       .  A
C413        C416   1.453       .  S
C414        C417   1.446       .  S
C415        N422   1.157   1_545  T
C416        N421   1.158       .  T
C417        N419   1.154       .  T
C418        N420   1.157       .  T
C423        C424   1.413       .  A
C423        C428   1.409       .  A
C424        C425   1.411       .  A
C424        C429   1.453       .  S
C425        C426   1.413       .  A
C425        C432   1.443       .  S
C426        C427   1.418       .  A
C427        C428   1.414       .  A
C427        C430   1.446       .  S
C428        C431   1.451       .  S
C429        N436   1.157       .  T
C430        N435   1.156       .  T
C431        N433   1.157       .  T
C432        N434   1.155       .  T
C437       C1275   1.496   1_554  S
C437        C438   1.414       .  A
C437        C442   1.418       .  A
C438        C439   1.415       .  A
C438        C443   1.451       .  S
C439        C440   1.415       .  A
C439        C446   1.448       .  S
C440        C441   1.413       .  A
C441        C442   1.414       .  A
C441        C444   1.449       .  S
C442       C1469   1.453       .  S
C443        N450   1.157   1_554  T
C444        N449   1.156       .  T
C445       C1466   1.453       .  S
C445        N447   1.158       .  T
C446        N448   1.156       .  T
C451        C452   1.411       .  A
C451        C456   1.405       .  A
C452        C453   1.411       .  A
C452        C457   1.453       .  S
C453        C454   1.417       .  A
C453        C460   1.449       .  S
C454        C455   1.428       .  A
C455        C456   1.413       .  A
C455        C458   1.451       .  S
C456        C459   1.453       .  S
C457        N464   1.157       .  T
C458        N463   1.158       .  T
C459        N461   1.157       .  T
C460        N462   1.156       .  T
C465        C466   1.419       .  A
C465        C470   1.426       .  A
C466        C467   1.409       .  A
C466        C471   1.445       .  S
C467        C468   1.413       .  A
C467        C474   1.453       .  S
C468        C469   1.410       .  A
C469        C470   1.411       .  A
C469        C472   1.453       .  S
C470        C473   1.452       .  S
C471        N478   1.155       .  T
C472        N477   1.157       .  T
C473        N475   1.158       .  T
C474        N476   1.158       .  T
C479        C480   1.416       .  A
C479        C484   1.416       .  A
C480        C481   1.411       .  A
C480        C485   1.451       .  S
C481        C482   1.410       .  A
C481        C488   1.451       .  S
C482        C483   1.408       .  A
C483        C484   1.405       .  A
C483        C486   1.450       .  S
C484        C487   1.453       .  S
C485        N492   1.157       .  T
C486        N491   1.157       .  T
C487        N489   1.157       .  T
C488        N490   1.157       .  T
C493        C498   1.409       .  A
C493       C1518   1.414       .  A
C494        C495   1.418       .  A
C494       C1517   1.414   1_554  A
C494        C499   1.450       .  S
C495        C496   1.416       .  A
C495        C502   1.449       .  S
C496       C1521   1.415   1_554  A
C497        C498   1.415       .  A
C497       C1520   1.415       .  A
C497        C500   1.449       .  S
C498        C501   1.448       .  S
C499        N506   1.157       .  T
C500        N505   1.156       .  T
C501        N503   1.157       .  T
C502        N504   1.157       .  T
C507        C508   1.415       .  A
C507        C512   1.411       .  A
C508        C509   1.410       .  A
C508        C513   1.451       .  S
C509        C510   1.408       .  A
C509        C516   1.450       .  S
C510        C511   1.415       .  A
C511        C512   1.415       .  A
C511        C514   1.451       .  S
C512        C515   1.448       .  S
C513        N520   1.157       .  T
C514        N519   1.157       .  T
C515        N517   1.156       .  T
C516        N518   1.157       .  T
C521        C522   1.430       .  A
C521        C526   1.406       .  A
C522        C523   1.412       .  A
C522        C527   1.453       .  S
C523       C1548   1.409       .  A
C523        C530   1.452       .  S
C524        C525   1.422   1_554  A
C524       C1547   1.409   1_554  A
C525       C1550   1.403       .  A
C525        C528   1.452   1_556  S
C526       C1549   1.403       .  A
C526        C529   1.450       .  S
C527        N534   1.158       .  T
C528        N533   1.158       .  T
C529        N531   1.158       .  T
C530        N532   1.158       .  T
C535        C536   1.416       .  A
C535        C540   1.427       .  A
C536        C537   1.413       .  A
C536        C541   1.447       .  S
C537        C538   1.415       .  A
C537        C544   1.451       .  S
C538        C539   1.408       .  A
C539        C540   1.411       .  A
C539        C542   1.454       .  S
C540        C543   1.452       .  S
C541        N548   1.156       .  T
C542        N547   1.157       .  T
C543        N545   1.158       .  T
C544        N546   1.157       .  T
C549        C550   1.410       .  A
C549        C554   1.409       .  A
C550        C551   1.414       .  A
C550        C555   1.451       .  S
C551        C552   1.417       .  A
C551        C558   1.449       .  S
C552        C553   1.417       .  A
C553        C554   1.415       .  A
C553        C556   1.451       .  S
C554        C557   1.446       .  S
C555        N562   1.157       .  T
C556        N561   1.157       .  T
C557        N559   1.156       .  T
C558        N560   1.157       .  T
C563        C564   1.419       .  A
C563        C568   1.414       .  A
C564        C565   1.413       .  A
C564        C569   1.452       .  S
C565        C566   1.414       .  A
C565        C572   1.451       .  S
C566        C567   1.422       .  A
C567        C568   1.403       .  A
C567        C570   1.454       .  S
C568        C571   1.456       .  S
C569        N576   1.158       .  T
C570        N575   1.158       .  T
C571        N573   1.157       .  T
C572        N574   1.157       .  T
C577        C578   1.413       .  A
C577        C582   1.413       .  A
C578        C579   1.418       .  A
C578        C583   1.449       .  S
C579        C580   1.412       .  A
C579        C586   1.448       .  S
C580        C581   1.412       .  A
C581        C582   1.414       .  A
C581        C584   1.448       .  S
C582        C585   1.450       .  S
C583        N590   1.157       .  T
C584        N589   1.156       .  T
C585        N587   1.157       .  T
C586        N588   1.157       .  T
C591        C592   1.422       .  A
C591        C596   1.422       .  A
C592        C593   1.415       .  A
C592        C597   1.452       .  S
C593        C594   1.411       .  A
C593        C600   1.447       .  S
C594        C595   1.410       .  A
C595        C596   1.406       .  A
C595        C598   1.451       .  S
C596        C599   1.454       .  S
C597        N604   1.158       .  T
C598        N603   1.156       .  T
C599        N601   1.158       .  T
C600        N602   1.156       .  T
C605        C606   1.411       .  A
C605        C610   1.406       .  A
C606        C607   1.414       .  A
C606        C611   1.449       .  S
C607        C608   1.421       .  A
C607        C614   1.451       .  S
C608       C1341   1.495   1_554  S
C608        C609   1.419       .  A
C609        C610   1.406       .  A
C609       C1636   1.454       .  S
C610        C613   1.444       .  S
C611        N618   1.157       .  T
C612       C1633   1.454       .  S
C612        N617   1.158       .  T
C613        N615   1.154       .  T
C614       N1640   1.157   1_554  T
N616       C1638   1.157       .  T
C619        C620   1.413       .  A
C619        C624   1.405       .  A
C620        C621   1.416       .  A
C620        C625   1.449       .  S
C621        C622   1.412       .  A
C621        C628   1.448       .  S
C622        C623   1.420       .  A
C623        C624   1.395       .  A
C623        C626   1.454       .  S
C624        C627   1.449       .  S
C625        N632   1.157       .  T
C626        N631   1.158       .  T
C627        N629   1.155       .  T
C628        N630   1.157       .  T
C633        C634   1.428       .  A
C633        C638   1.408       .  A
C634        C635   1.415       .  A
C634        C639   1.451       .  S
C635        C636   1.405       .  A
C635        C642   1.451       .  S
C636        C637   1.418       .  A
C637        C638   1.415       .  A
C637        C640   1.447       .  S
C638        C641   1.450       .  S
C639        N646   1.158       .  T
C640        N645   1.157       .  T
C641        N643   1.157       .  T
C642        N644   1.157       .  T
C647        C648   1.421       .  A
C647        C652   1.413       .  A
C648        C649   1.414       .  A
C648        C653   1.454   1_545  S
C649        C650   1.418       .  A
C649        C656   1.454       .  S
C650        C651   1.418       .  A
C651        C652   1.413       .  A
C651        C654   1.451       .  S
C652        C655   1.451       .  S
C653        N660   1.158       .  T
C654        N659   1.157       .  T
C655        N657   1.157       .  T
C656        N658   1.158       .  T
C661        C662   1.416       .  A
C661        C666   1.421       .  A
C662        C663   1.418       .  A
C662        C667   1.451       .  S
C663        C664   1.414       .  A
C663        C670   1.449       .  S
C664        C665   1.410       .  A
C665        C666   1.420       .  A
C665        C668   1.451       .  S
C666        C669   1.448       .  S
C667        N674   1.157   1_565  T
C668        N673   1.157       .  T
C669        N671   1.156       .  T
C670        N672   1.157       .  T
C675        C676   1.419       .  A
C675        C680   1.405       .  A
C676        C677   1.415       .  A
C676        C681   1.448       .  S
C677        C678   1.407       .  A
C677        C684   1.449       .  S
C678        C679   1.425       .  A
C679        C680   1.416       .  A
C679        C682   1.448       .  S
C680        C683   1.451       .  S
C681        N688   1.157       .  T
C682        N687   1.157       .  T
C683        N685   1.157       .  T
C684        N686   1.157       .  T
C689        C690   1.406       .  A
C689        C694   1.413       .  A
C690        C691   1.405       .  A
C690        C695   1.446       .  S
C691        C692   1.419       .  A
C691        C698   1.453       .  S
C692        C693   1.415       .  A
C693        C694   1.417       .  A
C693        C696   1.449       .  S
C694        C697   1.451       .  S
C695        N702   1.155       .  T
C696        N701   1.157       .  T
C697        N699   1.157       .  T
C698        N700   1.157       .  T
C703        C704   1.427       .  A
C703        C708   1.419       .  A
C704        C705   1.407       .  A
C704        C709   1.456       .  S
C705        C706   1.411       .  A
C705        C712   1.456   1_565  S
C706        C707   1.414       .  A
C707        C708   1.418       .  A
C707        C710   1.450       .  S
C708        C711   1.449       .  S
C709        N716   1.158   1_665  T
C710        N715   1.157       .  T
C711        N713   1.157       .  T
C712        N714   1.158       .  T
C717        C718   1.420       .  A
C717        C722   1.428       .  A
C718        C719   1.417       .  A
C718        C723   1.447       .  S
C719        C720   1.418       .  A
C719        C726   1.454       .  S
C720        C721   1.416       .  A
C721        C722   1.409       .  A
C721        C724   1.456       .  S
C722        C725   1.455       .  S
C723        N730   1.156       .  T
C724        N729   1.158       .  T
C725        N727   1.158       .  T
C726        N728   1.158       .  T
C731        C732   1.415       .  A
C731        C736   1.413   1_454  A
C732        C733   1.414       .  A
C732        C737   1.446       .  S
C733       C1758   1.414   1_554  A
C733        C740   1.452       .  S
C734        C735   1.420   1_455  A
C734       C1757   1.414       .  A
C735       C1760   1.415       .  A
C735        C738   1.451       .  S
C736       C1759   1.415       .  A
C736        C739   1.451       .  S
C737        N744   1.156       .  T
C738        N743   1.157       .  T
C739       N1765   1.158       .  T
C740        N742   1.158       .  T
N741       C1763   1.158       .  T
C745        C746   1.422       .  A
C745        C750   1.415       .  A
C746        C747   1.392       .  A
C746        C751   1.457       .  S
C747        C748   1.402       .  A
C747        C754   1.452       .  S
C748        C749   1.414       .  A
C749        C750   1.418       .  A
C749        C752   1.449       .  S
C750        C753   1.449       .  S
C751        N758   1.158       .  T
C752        N757   1.157   1_455  T
C753        N755   1.158       .  T
C754        N756   1.155       .  T
C759        C760   1.411       .  A
C759        C764   1.406       .  A
C760        C761   1.411       .  A
C760        C765   1.451       .  S
C761       C1786   1.415       .  A
C761        C768   1.451       .  S
C762        C763   1.420   1_554  A
C762       C1785   1.415   1_554  A
C763       C1788   1.402       .  A
C763        C766   1.455   1_556  S
C764       C1787   1.402       .  A
C764        C767   1.449       .  S
C765        N772   1.157       .  T
C766        N771   1.157       .  T
C767        N769   1.156       .  T
C768        N770   1.157   1_455  T
C773        C774   1.419       .  A
C773        C778   1.415       .  A
C774        C775   1.417       .  A
C774        C779   1.449       .  S
C775        C776   1.412       .  A
C775        C782   1.450       .  S
C776        C777   1.415       .  A
C777        C778   1.401       .  A
C777        C780   1.453       .  S
C778        C781   1.455   1_455  S
C779        N786   1.157       .  T
C780        N785   1.158       .  T
C781        N783   1.157       .  T
C782        N784   1.157       .  T
C787        C788   1.409       .  A
C787        C792   1.414       .  A
C788        C789   1.401       .  A
C788        C793   1.451       .  S
C789        C790   1.411       .  A
C789        C796   1.450       .  S
C790        C791   1.408       .  A
C791        C792   1.408       .  A
C791        C794   1.450       .  S
C792        C795   1.451       .  S
C793        N800   1.157       .  T
C794        N799   1.157       .  T
C795        N797   1.157       .  T
C796        N798   1.157       .  T
C801        C802   1.401       .  A
C801        C806   1.415       .  A
C802        C803   1.404       .  A
C802        C807   1.448       .  S
C803        C804   1.428       .  A
C803        C810   1.454       .  S
C804       C1143   1.506   1_554  S
C804        C805   1.419       .  A
C805        C806   1.421       .  A
C805       C1832   1.450   1_554  S
C806        C809   1.448       .  S
C807        N814   1.155       .  T
C808       C1829   1.450       .  S
C808        N813   1.157       .  T
C809        N811   1.157       .  T
C810        N812   1.158       .  T
C815        C816   1.412       .  A
C815        C820   1.404       .  A
C816        C817   1.417       .  A
C816        C821   1.451       .  S
C817        C818   1.420       .  A
C817        C824   1.450       .  S
C818        C819   1.422       .  A
C819        C820   1.405       .  A
C819        C822   1.453       .  S
C820        C823   1.448       .  S
C821        N828   1.157       .  T
C822        N827   1.158       .  T
C823        N825   1.156       .  T
C824        N826   1.157   1_455  T
C829        C830   1.415       .  A
C829        C834   1.416       .  A
C830        C831   1.418       .  A
C830        C835   1.452       .  S
C831        C832   1.420       .  A
C831        C838   1.451       .  S
C832        C833   1.421       .  A
C833        C834   1.417       .  A
C833        C836   1.453       .  S
C834        C837   1.452       .  S
C835        N842   1.157       .  T
C836        N841   1.158       .  T
C837        N839   1.157       .  T
C838        N840   1.157       .  T
C843        C844   1.410       .  A
C843        C848   1.410       .  A
C844        C845   1.408       .  A
C844        C849   1.452       .  S
C845        C846   1.410       .  A
C845        C852   1.446       .  S
C846        C847   1.412       .  A
C847        C848   1.412       .  A
C847        C850   1.450       .  S
C848        C851   1.448       .  S
C849        N856   1.157       .  T
C850        N855   1.157       .  T
C851        N853   1.157       .  T
C852        N854   1.155       .  T
C857        C858   1.412       .  A
C857        C862   1.415       .  A
C858        C859   1.419       .  A
C858        C863   1.448       .  S
C859        C860   1.414       .  A
C859        C866   1.449       .  S
C860        C861   1.411       .  A
C861        C862   1.415       .  A
C861        C864   1.450       .  S
C862        C865   1.451       .  S
C863        N870   1.157       .  T
C864        N869   1.157       .  T
C865        N867   1.157       .  T
C866        N868   1.157       .  T
C871        C872   1.416       .  A
C871        C876   1.412       .  A
C872        C873   1.422       .  A
C872        C877   1.450       .  S
C873        C874   1.419       .  A
C873        C880   1.450       .  S
C874        C875   1.428       .  A
C875        C876   1.406       .  A
C875        C878   1.456       .  S
C876        C879   1.455       .  S
C877        N884   1.157       .  T
C878        N883   1.158       .  T
C879        N881   1.157       .  T
C880        N882   1.157       .  T
C885        C886   1.424       .  A
C885        C890   1.408       .  A
C886        C887   1.411       .  A
C886        C891   1.447       .  S
C887       C1912   1.409       .  A
C887        C894   1.453       .  S
C888        C889   1.423   1_554  A
C888       C1911   1.409   1_554  A
C889       C1914   1.404       .  A
C889        C892   1.452   1_556  S
C890       C1913   1.404       .  A
C890        C893   1.451       .  S
C891        N898   1.155       .  T
C892        N897   1.158       .  T
C893        N895   1.158       .  T
C894        N896   1.157       .  T
C899        C900   1.412       .  A
C899        C904   1.407       .  A
C900        C901   1.407       .  A
C900        C905   1.452       .  S
C901        C902   1.409       .  A
C901        C908   1.451       .  S
C902        C903   1.415       .  A
C903        C904   1.410       .  A
C903        C906   1.451       .  S
C904        C907   1.451       .  S
C905        N912   1.157       .  T
C906        N911   1.157       .  T
C907        N909   1.157       .  T
C908        N910   1.157       .  T
C913        C914   1.417       .  A
C913        C918   1.411       .  A
C914        C915   1.413       .  A
C914        C919   1.452       .  S
C915        C916   1.415       .  A
C915        C922   1.451       .  S
C916        C917   1.419       .  A
C917        C918   1.398       .  A
C917        C920   1.454       .  S
C918        C921   1.455       .  S
C919        N926   1.157       .  T
C920        N925   1.157       .  T
C921        N923   1.158       .  T
C922        N924   1.158       .  T
C927        C928   1.422       .  A
C927        C932   1.419       .  A
C928        C929   1.405       .  A
C928        C933   1.452       .  S
C929        C930   1.403       .  A
C929        C936   1.452       .  S
C930        C931   1.409       .  A
C931        C932   1.412       .  A
C931        C934   1.452       .  S
C932        C935   1.451       .  S
C933        N940   1.157       .  T
C934        N939   1.157       .  T
C935        N937   1.157       .  T
C936        N938   1.157       .  T
C941        C942   1.422       .  A
C941        C946   1.418       .  A
C942        C943   1.407       .  A
C942        C947   1.455       .  S
C943        C944   1.413       .  A
C943        C950   1.453   1_565  S
C944        C945   1.414       .  A
C945        C946   1.421       .  A
C945        C948   1.449       .  S
C946        C949   1.449       .  S
C947        N954   1.157   1_565  T
C948        N953   1.157       .  T
C949        N951   1.157       .  T
C950        N952   1.157       .  T
C955        C956   1.420       .  A
C955        C960   1.418       .  A
C956        C957   1.408       .  A
C956        C961   1.453       .  S
C957        C958   1.408       .  A
C957        C964   1.449       .  S
C958        C959   1.411       .  A
C959        C960   1.415       .  A
C959        C962   1.451       .  S
C960        C963   1.450       .  S
C961        N968   1.157       .  T
C962        N967   1.157       .  T
C963        N965   1.157       .  T
C964        N966   1.156       .  T
C969        C970   1.419       .  A
C969        C974   1.416       .  A
C970       C1995   1.402       .  A
C970        C975   1.457       .  S
C971        C972   1.420       .  A
C971       C1994   1.402   1_554  A
C971        C978   1.456       .  S
C972        C973   1.415       .  A
C973       C1998   1.427   1_554  A
C973        C976   1.448       .  S
C974       C1997   1.427       .  A
C974        C977   1.447       .  S
C975        N982   1.158       .  T
C976        N981   1.157       .  T
C977        N979   1.157       .  T
C978        N980   1.157       .  T
C983        C984   1.413       .  A
C983        C988   1.427       .  A
C984        C985   1.412       .  A
C984        C989   1.450       .  S
C985        C986   1.419       .  A
C985        C992   1.453       .  S
C986        C987   1.410       .  A
C987        C988   1.405       .  A
C987        C990   1.455       .  S
C988        C991   1.455       .  S
C989        N996   1.157       .  T
C990        N995   1.158       .  T
C991        N993   1.157       .  T
C992        N994   1.158       .  T
C997        C998   1.412       .  A
C997       C1002   1.408       .  A
C998        C999   1.412       .  A
C998       C1003   1.450       .  S
C999       C1000   1.410       .  A
C999       C1006   1.451       .  S
C1000      C1001   1.413       .  A
C1001      C1002   1.405       .  A
C1001      C1004   1.452       .  S
C1002      C1005   1.451       .  S
C1003      N1010   1.157       .  T
C1004      N1009   1.157       .  T
C1005      N1007   1.157       .  T
C1006      N1008   1.157       .  T
C1011      C1012   1.417       .  A
C1011      C1016   1.410       .  A
C1012      C1013   1.417       .  A
C1012      C1017   1.445       .  S
C1013      C1014   1.412   1_554  A
C1013      C1020   1.450       .  S
C1014      C1033   1.502       .  S
C1014      C1015   1.428   1_556  A
C1015      C1016   1.407       .  A
C1015      C2042   1.457   1_554  S
C1016      C1019   1.450       .  S
C1017      N1024   1.155   1_565  T
C1018      C2039   1.457       .  S
C1018      N1023   1.158       .  T
C1019      N1021   1.156       .  T
C1020      N1022   1.157   1_554  T
O1025     Cr1043   2.013       .  S
O1025      C1033   1.270       .  A
O1026     Cr1043   1.960       .  S
O1026      C1027   1.256       .  A
C1027      O1028   1.268       .  A
C1027      C1965   1.501       .  S
O1028     Cr1044   2.010       .  S
O1029     Cr1044   2.056       .  S
O1029      C1030   1.274       .  A
C1030      O1031   1.254       .  A
C1030      C1993   1.499       .  S
O1031     Cr1045   1.964       .  S
O1032     Cr1045   1.962       .  S
O1032      C1033   1.256       .  A
O1034     Cr1043   1.967       .  S
O1034      C1042   1.257       .  A
O1035     Cr1043   1.960       .  S
O1035      C1036   1.260       .  A
C1036      O1037   1.270       .  A
C1036      C2021   1.472       .  S
O1037     Cr1044   2.022       .  S
O1038     Cr1044   1.991       .  S
O1038      C1039   1.260       .  A
C1039      O1040   1.257       .  A
C1039      C1979   1.494       .  S
O1040     Cr1045   1.989       .  S
O1041     Cr1045   2.004       .  S
O1041      C1042   1.267       .  A
C1042      C2007   1.493       .  S
Cr1043     O1046   1.766       .  S
Cr1044     O1046   1.792       .  S
Cr1045     O1046   1.760       .  S
O1047     Cr1065   1.999       .  S
O1047      C1055   1.265       .  A
O1048     Cr1065   1.971       .  S
O1048      C1049   1.260       .  A
C1049      O1050   1.267       .  A
C1049      C1895   1.493       .  S
O1050     Cr1066   2.003       .  S
O1051     Cr1066   2.068       .  S
O1051      C1052   1.278       .  A
C1052      O1053   1.252       .  A
C1052      C1996   1.499       .  S
O1053     Cr1067   1.961       .  S
O1054     Cr1067   1.972       .  S
O1054      C1055   1.254       .  A
C1055      C1912   1.487       .  S
O1056     Cr1065   1.984       .  S
O1056      C1064   1.264       .  A
O1057     Cr1065   1.951       .  S
O1057      C1058   1.257       .  A
C1058      O1059   1.272       .  A
C1058      C1926   1.473       .  S
O1059     Cr1066   2.025       .  S
O1060     Cr1066   1.990       .  S
O1060      C1061   1.258       .  A
C1061      O1062   1.255       .  A
C1061      C1951   1.492       .  S
O1062     Cr1067   1.989       .  S
O1063     Cr1067   1.983       .  S
O1063      C1064   1.264       .  A
C1064      C1940   1.484       .  S
Cr1065     O1068   1.760       .  S
Cr1066     O1068   1.783       .  S
Cr1067     O1068   1.757       .  S
O1069     Cr1087   1.962       .  S
O1069      C1077   1.257       .  A
O1070     Cr1087   1.998       .  S
O1070      C1071   1.265       .  A
C1071      O1072   1.270       .  A
C1071      C1884   1.492       .  S
O1072     Cr1088   2.009       .  S
O1073     Cr1088   2.010       .  S
O1073      C1074   1.264       .  A
C1074      O1075   1.262       .  A
C1074      C1856   1.510       .  S
O1075     Cr1089   1.984       .  S
O1076     Cr1089   2.004       .  S
O1076      C1077   1.263       .  A
C1077      C1923   1.472       .  S
O1078     Cr1087   1.993       .  S
O1078      C1086   1.260       .  A
O1079     Cr1087   1.974       .  S
O1079      C1080   1.255       .  A
C1080      O1081   1.264       .  A
C1080      C1867   1.477       .  S
O1081     Cr1088   2.013       .  S
O1082     Cr1088   1.987       .  S
O1082      C1083   1.268       .  A
C1083      O1084   1.264       .  A
C1083      C1909   1.500       .  S
O1084     Cr1089   1.995       .  S
O1085     Cr1089   1.984       .  S
O1085      C1086   1.260       .  A
C1086      C1982   1.481       .  S
Cr1087     O1090   1.775       .  S
Cr1088     O1090   1.784       .  S
Cr1089     O1090   1.781       .  S
O1091     Cr1109   1.968       .  S
O1091      C1099   1.259       .  A
O1092     Cr1109   2.006       .  S
O1092      C1093   1.266       .  A
C1093      O1094   1.270       .  A
C1093      C1881   1.494       .  S
O1094     Cr1110   2.011       .  S
O1095     Cr1110   2.010       .  S
O1095      C1096   1.264       .  A
C1096      O1097   1.257       .  A
C1096      C1800   1.482       .  S
O1097     Cr1111   1.969       .  S
O1098     Cr1111   2.001       .  S
O1098      C1099   1.263       .  A
C1099      C1814   1.465       .  S
O1100     Cr1109   2.007       .  S
O1100      C1108   1.263       .  A
O1101     Cr1109   1.971       .  S
O1101      C1102   1.257       .  A
C1102      O1103   1.264       .  A
C1102      C1937   1.482       .  S
O1103     Cr1110   1.991       .  S
O1104     Cr1110   1.997       .  S
O1104      C1105   1.265       .  A
C1105      O1106   1.261       .  A
C1105      C1825   1.488       .  S
O1106     Cr1111   2.008       .  S
O1107     Cr1111   1.980       .  S
O1107      C1108   1.259       .  A
C1108      C1839   1.481       .  S
Cr1109     O1112   1.769       .  S
Cr1110     O1112   1.777       .  S
Cr1111     O1112   1.771       .  S
O1113     Cr1131   1.976       .  S
O1113      C1121   1.261       .  A
O1114     Cr1131   1.961       .  S
O1114      C1115   1.254   1_455  A
C1115      O1116   1.268       .  A
C1115      C1727   1.506       .  S
O1116     Cr1132   2.012   1_655  S
O1117     Cr1132   2.039       .  S
O1117      C1118   1.274       .  A
C1118      O1119   1.260       .  A
C1118      C1755   1.495       .  S
O1119     Cr1133   1.966       .  S
O1120     Cr1133   1.986       .  S
O1120      C1121   1.263       .  A
C1121      C1786   1.482       .  S
O1122     Cr1131   1.985       .  S
O1122      C1130   1.260       .  A
O1123     Cr1131   1.936       .  S
O1123      C1124   1.258       .  A
C1124      O1125   1.270       .  A
C1124      C1772   1.470       .  S
O1125     Cr1132   2.028       .  S
O1126     Cr1132   2.002       .  S
O1126      C1127   1.264       .  A
C1127      O1128   1.258       .  A
C1127      C1842   1.499       .  S
O1128     Cr1133   1.983       .  S
O1129     Cr1133   2.010       .  S
O1129      C1130   1.266       .  A
C1130      C1741   1.510       .  S
Cr1131     O1134   1.763       .  S
Cr1132     O1134   1.784       .  S
Cr1133     O1134   1.766       .  S
O1135     Cr1153   2.021       .  S
O1135      C1143   1.265       .  A
O1136     Cr1153   2.001       .  S
O1136      C1137   1.264   1_455  A
C1137      O1138   1.262       .  A
C1137      C1699   1.492       .  S
O1138     Cr1154   1.987   1_655  S
O1139     Cr1154   2.024       .  S
O1139      C1140   1.275       .  A
C1140      O1141   1.270       .  A
C1140      C1758   1.502       .  S
O1141     Cr1155   1.980       .  S
O1142     Cr1155   1.973       .  S
O1142      C1143   1.252       .  A
O1144     Cr1153   2.025       .  S
O1144      C1152   1.273       .  A
O1145     Cr1153   1.958       .  S
O1145      C1146   1.260       .  A
C1146      O1147   1.262       .  A
C1146      C1811   1.474       .  S
O1147     Cr1154   1.980       .  S
O1148     Cr1154   2.006       .  S
O1148      C1149   1.257       .  A
C1149      O1150   1.250       .  A
C1149      C1716   1.494       .  S
O1150     Cr1155   1.969       .  S
O1151     Cr1155   1.975       .  S
O1151      C1152   1.263       .  A
C1152      C1870   1.479       .  S
Cr1153     O1156   1.781       .  S
Cr1154     O1156   1.779       .  S
Cr1155     O1156   1.770       .  S
O1157     Cr1175   1.961       .  S
O1157      C1165   1.260       .  A
O1158     Cr1175   2.004       .  S
O1158      C1159   1.265       .  A
C1159      O1160   1.271       .  A
C1159      C1688   1.494       .  S
O1160     Cr1176   2.013       .  S
O1161     Cr1176   2.014   1_545  S
O1161      C1162   1.265       .  A
C1162      O1163   1.255   1_545  A
C1162      C1671   1.497       .  S
O1163     Cr1177   1.966       .  S
O1164     Cr1177   2.013       .  S
O1164      C1165   1.268       .  A
C1165      C2024   1.475       .  S
O1166     Cr1175   1.994       .  S
O1166      C1174   1.258       .  A
O1167     Cr1175   1.977       .  S
O1167      C1168   1.259       .  A
C1168      O1169   1.266       .  A
C1168      C1744   1.501       .  S
O1169     Cr1176   2.007       .  S
O1170     Cr1176   1.984       .  S
O1170      C1171   1.266       .  A
C1171      O1172   1.268       .  A
C1171      C2035   1.498       .  S
O1172     Cr1177   2.017       .  S
O1173     Cr1177   1.972       .  S
O1173      C1174   1.255       .  A
C1174      C1954   1.469       .  S
Cr1175     O1178   1.766       .  S
Cr1176     O1178   1.775       .  S
Cr1177     O1178   1.775       .  S
O1179     Cr1197   1.958       .  S
O1179      C1187   1.249       .  A
O1180     Cr1197   1.979       .  S
O1180      C1181   1.266       .  A
C1181      O1182   1.278       .  A
C1181      C1685   1.508       .  S
O1182     Cr1198   2.045       .  S
O1183     Cr1198   2.001   1_545  S
O1183      C1184   1.266       .  A
C1184      O1185   1.259   1_545  A
C1184      C1660   1.489       .  S
O1185     Cr1199   1.985       .  S
O1186     Cr1199   2.017       .  S
O1186      C1187   1.263       .  A
C1187      C1769   1.485       .  S
O1188     Cr1197   1.980       .  S
O1188      C1196   1.264       .  A
O1189     Cr1197   1.974       .  S
O1189      C1190   1.250       .  A
C1190      O1191   1.255       .  A
C1190      C2010   1.485       .  S
O1191     Cr1198   1.981       .  S
O1192     Cr1198   1.995       .  S
O1192      C1193   1.266       .  A
C1193      O1194   1.262       .  A
C1193      C1783   1.472       .  S
O1194     Cr1199   1.961       .  S
O1195     Cr1199   2.027       .  S
O1195      C1196   1.271       .  A
C1196      C1713   1.482       .  S
Cr1197     O1200   1.770       .  S
Cr1198     O1200   1.774       .  S
Cr1199     O1200   1.779       .  S
O1201     Cr1219   1.978       .  S
O1201      C1209   1.261       .  A
O1202     Cr1219   1.983       .  S
O1202      C1203   1.262       .  A
C1203      O1204   1.267       .  A
C1203      C1898   1.509       .  S
O1204     Cr1220   1.995       .  S
O1205     Cr1220   2.041       .  S
O1205      C1206   1.275       .  A
C1206      O1207   1.262       .  A
C1206      C1601   1.499       .  S
O1207     Cr1221   1.977       .  S
O1208     Cr1221   1.993       .  S
O1208      C1209   1.264       .  A
C1209      C1643   1.472       .  S
O1210     Cr1219   1.996       .  S
O1210      C1218   1.264       .  A
O1211     Cr1219   1.975       .  S
O1211      C1212   1.262       .  A
C1212      O1213   1.266       .  A
C1212      C1629   1.488       .  S
O1213     Cr1220   2.016       .  S
O1214     Cr1220   1.969       .  S
O1214      C1215   1.255       .  A
C1215      O1216   1.258       .  A
C1215      C1587   1.489       .  S
O1216     Cr1221   1.996       .  S
O1217     Cr1221   1.997       .  S
O1217      C1218   1.262       .  A
C1218      C1618   1.495       .  S
Cr1219     O1222   1.762       .  S
Cr1220     O1222   1.776       .  S
Cr1221     O1222   1.773       .  S
O1223     Cr1241   2.008       .  S
O1223      C1231   1.263       .  A
O1224     Cr1241   1.997       .  S
O1224      C1225   1.268       .  A
C1225      O1226   1.262       .  A
C1225      C1702   1.503       .  S
O1226     Cr1242   2.009       .  S
O1227     Cr1242   2.012       .  S
O1227      C1228   1.271       .  A
C1228      O1229   1.266       .  A
C1228      C1604   1.490       .  S
O1229     Cr1243   1.995       .  S
O1230     Cr1243   1.976       .  S
O1230      C1231   1.260       .  A
C1231      C1531   1.486       .  S
O1232     Cr1241   1.985       .  S
O1232      C1240   1.260       .  A
O1233     Cr1241   1.978       .  S
O1233      C1234   1.259       .  A
C1234      O1235   1.271       .  A
C1234      C1545   1.501       .  S
O1235     Cr1242   1.999       .  S
O1236     Cr1242   2.016       .  S
O1236      C1237   1.262       .  A
C1237      O1238   1.253       .  A
C1237      C1573   1.488       .  S
O1238     Cr1243   1.979       .  S
O1239     Cr1243   1.983       .  S
O1239      C1240   1.258       .  A
C1240      C1562   1.486       .  S
Cr1241     O1244   1.785       .  S
Cr1242     O1244   1.786       .  S
Cr1243     O1244   1.780       .  S
O1245     Cr1263   1.984       .  S
O1245      C1253   1.261       .  A
O1246     Cr1263   1.973       .  S
O1246      C1247   1.264       .  A
C1247      O1248   1.277       .  A
C1247      C1520   1.499       .  S
O1248     Cr1264   2.042       .  S
O1249     Cr1264   1.990       .  S
O1249      C1250   1.259       .  A
C1250      O1251   1.256       .  A
C1250      C1797   1.492   1_655  S
O1251     Cr1265   1.963       .  S
O1252     Cr1265   1.987       .  S
O1252      C1253   1.266       .  A
C1253      C1548   1.487       .  S
O1254     Cr1263   2.003       .  S
O1254      C1262   1.267       .  A
O1255     Cr1263   1.978       .  S
O1255      C1256   1.255       .  A
C1256      O1257   1.255       .  A
C1256      C1503   1.482       .  S
O1257     Cr1264   1.978       .  S
O1258     Cr1264   2.033       .  S
O1258      C1259   1.273       .  A
C1259      O1260   1.258       .  A
C1259      C1534   1.483       .  S
O1260     Cr1265   1.960       .  S
O1261     Cr1265   1.971       .  S
O1261      C1262   1.256       .  A
C1262      C1590   1.490       .  S
Cr1263     O1266   1.769       .  S
Cr1264     O1266   1.779       .  S
Cr1265     O1266   1.771       .  S
O1267     Cr1285   1.982       .  S
O1267      C1275   1.265       .  A
O1268     Cr1285   1.989       .  S
O1268      C1269   1.265       .  A
C1269      O1270   1.275       .  A
C1269      C1517   1.488       .  S
O1270     Cr1286   2.021       .  S
O1271     Cr1286   1.975       .  S
O1271      C1272   1.252       .  A
C1272      O1273   1.266       .  A
C1272      C1657   1.501   1_655  S
O1273     Cr1287   2.007       .  S
O1274     Cr1287   1.999       .  S
O1274      C1275   1.266       .  A
O1276     Cr1285   1.970       .  S
O1276      C1284   1.254       .  A
O1277     Cr1285   2.013       .  S
O1277      C1278   1.263       .  A
C1278      O1279   1.253       .  A
C1278      C1559   1.510       .  S
O1279     Cr1286   1.980       .  S
O1280     Cr1286   2.008       .  S
O1280      C1281   1.275       .  A
C1281      O1282   1.265       .  A
C1281      C1478   1.502       .  S
O1282     Cr1287   1.990       .  S
O1283     Cr1287   1.982       .  S
O1283      C1284   1.259       .  A
C1284      C1492   1.490       .  S
Cr1285     O1288   1.780       .  S
Cr1286     O1288   1.778       .  S
Cr1287     O1288   1.786       .  S
O1289     Cr1307   2.002       .  S
O1289      C1297   1.266       .  A
O1290     Cr1307   1.982       .  S
O1290      C1291   1.259       .  A
C1291      O1292   1.259       .  A
C1291      C1968   1.491   1_545  S
O1292     Cr1308   2.006       .  S
O1293     Cr1308   2.016       .  S
O1293      C1294   1.274       .  A
C1294      O1295   1.269       .  A
C1294      C1422   1.495       .  S
O1295     Cr1309   2.008       .  S
O1296     Cr1309   1.975       .  S
O1296      C1297   1.263       .  A
C1297      C1447   1.485       .  S
O1298     Cr1307   1.973       .  S
O1298      C1306   1.258       .  A
O1299     Cr1307   2.007       .  S
O1299      C1300   1.264       .  A
C1300      O1301   1.270       .  A
C1300      C1433   1.488       .  S
O1301     Cr1308   2.004       .  S
O1302     Cr1308   1.990       .  S
O1302      C1303   1.258       .  A
C1303      O1304   1.261       .  A
C1303      C1489   1.506       .  S
O1304     Cr1309   2.000       .  S
O1305     Cr1309   1.994       .  S
O1305      C1306   1.259       .  A
C1306      C1408   1.492       .  S
Cr1307     O1310   1.775       .  S
Cr1308     O1310   1.780       .  S
Cr1309     O1310   1.774       .  S
O1311     Cr1329   2.006       .  S
O1311      C1319   1.266       .  A
O1312     Cr1329   1.979       .  S
O1312      C1313   1.260       .  A
C1313      O1314   1.261       .  A
C1313      C1730   1.487   1_545  S
O1314     Cr1330   2.000       .  S
O1315     Cr1330   2.015       .  S
O1315      C1316   1.274       .  A
C1316      O1317   1.267       .  A
C1316      C1419   1.493       .  S
O1317     Cr1331   2.001       .  S
O1318     Cr1331   1.969       .  S
O1318      C1319   1.260       .  A
C1319      C1475   1.480       .  S
O1320     Cr1329   1.975       .  S
O1320      C1328   1.257       .  A
O1321     Cr1329   2.007       .  S
O1321      C1322   1.265       .  A
C1322      O1323   1.268       .  A
C1322      C1464   1.496       .  S
O1323     Cr1330   2.003       .  S
O1324     Cr1330   1.987       .  S
O1324      C1325   1.257       .  A
C1325      O1326   1.254       .  A
C1325      C1391   1.470       .  S
O1326     Cr1331   1.964       .  S
O1327     Cr1331   1.988       .  S
O1327      C1328   1.258       .  A
C1328      C1506   1.473       .  S
Cr1329     O1332   1.775       .  S
Cr1330     O1332   1.782       .  S
Cr1331     O1332   1.767       .  S
O1333     Cr1351   1.970       .  S
O1333      C1341   1.259       .  A
O1334     Cr1351   1.994       .  S
O1334      C1335   1.262       .  A
C1335      O1336   1.271       .  A
C1335      C1377   1.492       .  S
O1336     Cr1352   2.022       .  S
O1337     Cr1352   1.996       .  S
O1337      C1338   1.263       .  A
C1338      O1339   1.270       .  A
C1338      C1853   1.499       .  S
O1339     Cr1353   1.995       .  S
O1340     Cr1353   2.006       .  S
O1340      C1341   1.265       .  A
O1342     Cr1351   2.005       .  S
O1342      C1350   1.261       .  A
O1343     Cr1351   1.971       .  S
O1343      C1344   1.258       .  A
C1344      O1345   1.265       .  A
C1344      C1405   1.501       .  S
O1345     Cr1352   2.006       .  S
O1346     Cr1352   2.019       .  S
O1346      C1347   1.272       .  A
C1347      O1348   1.253       .  A
C1347      C1646   1.484       .  S
O1348     Cr1353   1.970       .  S
O1349     Cr1353   1.991       .  S
O1349      C1350   1.258       .  A
C1350      C1576   1.498       .  S
Cr1351     O1354   1.771       .  S
Cr1352     O1354   1.773       .  S
Cr1353     O1354   1.771       .  S
O1355     Cr1373   1.975       .  S
O1355      C1363   1.263       .  A
O1356     Cr1373   2.003       .  S
O1356      C1357   1.266       .  A
C1357      O1358   1.270       .  A
C1357      C1380   1.490       .  S
O1358     Cr1374   2.009       .  S
O1359     Cr1374   2.001       .  S
O1359      C1360   1.264       .  A
C1360      O1361   1.263       .  A
C1360      C1674   1.495       .  S
O1361     Cr1375   1.980       .  S
O1362     Cr1375   2.028       .  S
O1362      C1363   1.270       .  A
C1363      C1436   1.502       .  S
O1364     Cr1373   1.994       .  S
O1364      C1372   1.258       .  A
O1365     Cr1373   1.986       .  S
O1365      C1366   1.259       .  A
C1366      O1367   1.262       .  A
C1366      C1615   1.501       .  S
O1367     Cr1374   1.999       .  S
O1368     Cr1374   2.005       .  S
O1368      C1369   1.268       .  A
C1369      O1370   1.267       .  A
C1369      C1450   1.500       .  S
O1370     Cr1375   2.012       .  S
O1371     Cr1375   1.964       .  S
O1371      C1372   1.255       .  A
C1372      C1394   1.462       .  S
Cr1373     O1376   1.768       .  S
Cr1374     O1376   1.770       .  S
Cr1375     O1376   1.770       .  S
C1377      C1382   1.413       .  A
C1378      C1379   1.416       .  A
C1378      C1383   1.450       .  S
C1379      C1380   1.414       .  A
C1379      C1386   1.451       .  S
C1381      C1382   1.417   1_554  A
C1381      C1384   1.450   1_554  S
C1382      C1385   1.446       .  S
C1383      N1390   1.157       .  T
C1384      N1389   1.157       .  T
C1385      N1387   1.156       .  T
C1386      N1388   1.157       .  T
C1391      C1392   1.412       .  A
C1391      C1396   1.416       .  A
C1392      C1393   1.400       .  A
C1392      C1397   1.454       .  S
C1393      C1394   1.405       .  A
C1393      C1400   1.446       .  S
C1394      C1395   1.407       .  A
C1395      C1396   1.406       .  A
C1395      C1398   1.452       .  S
C1396      C1399   1.451       .  S
C1397      N1404   1.157       .  T
C1398      N1403   1.157       .  T
C1399      N1401   1.157       .  T
C1400      N1402   1.155       .  T
C1405      C1406   1.420       .  A
C1405      C1410   1.419       .  A
C1406      C1407   1.411       .  A
C1406      C1411   1.452       .  S
C1407      C1408   1.414       .  A
C1407      C1414   1.450       .  S
C1408      C1409   1.415       .  A
C1409      C1410   1.410       .  A
C1409      C1412   1.453       .  S
C1410      C1413   1.451       .  S
C1411      N1418   1.157       .  T
C1412      N1417   1.158       .  T
C1413      N1415   1.157       .  T
C1414      N1416   1.157       .  T
C1419      C1420   1.411       .  A
C1419      C1424   1.415       .  A
C1420      C1421   1.419       .  A
C1420      C1425   1.449       .  S
C1421      C1422   1.414       .  A
C1421      C1428   1.446       .  S
C1422      C1423   1.413       .  A
C1423      C1424   1.417       .  A
C1423      C1426   1.450       .  S
C1424      C1427   1.451       .  S
C1425      N1432   1.157       .  T
C1426      N1431   1.157       .  T
C1427      N1429   1.157       .  T
C1428      N1430   1.156   1_545  T
C1433      C1434   1.412       .  A
C1433      C1438   1.408       .  A
C1434      C1439   1.450       .  S
C1435      C1436   1.419       .  A
C1435      C1442   1.449       .  S
C1437      C1438   1.410       .  A
C1437      C1440   1.453       .  S
C1438      C1441   1.446       .  S
C1439      N1446   1.157   1_545  T
C1440      N1445   1.158       .  T
C1441      N1443   1.154       .  T
C1442      N1444   1.157       .  T
C1447      C1448   1.413       .  A
C1447      C1452   1.409       .  A
C1448      C1449   1.411       .  A
C1448      C1453   1.453       .  S
C1449      C1450   1.413       .  A
C1449      C1456   1.443       .  S
C1450      C1451   1.418       .  A
C1451      C1452   1.414       .  A
C1451      C1454   1.446       .  S
C1452      C1455   1.451       .  S
C1453      N1460   1.157       .  T
C1454      N1459   1.156       .  T
C1455      N1457   1.157       .  T
C1456      N1458   1.155       .  T
C1461      C1462   1.414       .  A
C1461      C1466   1.418       .  A
C1462      C1463   1.415       .  A
C1462      C1467   1.451       .  S
C1463      C1464   1.415       .  A
C1463      C1470   1.448       .  S
C1464      C1465   1.413       .  A
C1465      C1466   1.414       .  A
C1465      C1468   1.449       .  S
C1467      N1474   1.157       .  T
C1468      N1473   1.156       .  T
C1469      N1471   1.158       .  T
C1470      N1472   1.156       .  T
C1475      C1476   1.411       .  A
C1475      C1480   1.405       .  A
C1476      C1477   1.411       .  A
C1476      C1481   1.453       .  S
C1477      C1478   1.417       .  A
C1477      C1484   1.449       .  S
C1478      C1479   1.428       .  A
C1479      C1480   1.413       .  A
C1479      C1482   1.451       .  S
C1480      C1483   1.453       .  S
C1481      N1488   1.157       .  T
C1482      N1487   1.158       .  T
C1483      N1485   1.157       .  T
C1484      N1486   1.156       .  T
C1489      C1490   1.419       .  A
C1489      C1494   1.426       .  A
C1490      C1491   1.409       .  A
C1490      C1495   1.445       .  S
C1491      C1492   1.413       .  A
C1491      C1498   1.453       .  S
C1492      C1493   1.410       .  A
C1493      C1494   1.411       .  A
C1493      C1496   1.453       .  S
C1494      C1497   1.452       .  S
C1495      N1502   1.155       .  T
C1496      N1501   1.157       .  T
C1497      N1499   1.158       .  T
C1498      N1500   1.158       .  T
C1503      C1504   1.416       .  A
C1503      C1508   1.416       .  A
C1504      C1505   1.411       .  A
C1504      C1509   1.451       .  S
C1505      C1506   1.410       .  A
C1505      C1512   1.451       .  S
C1506      C1507   1.408       .  A
C1507      C1508   1.405       .  A
C1507      C1510   1.450       .  S
C1508      C1511   1.453       .  S
C1509      N1516   1.157       .  T
C1510      N1515   1.157       .  T
C1511      N1513   1.157       .  T
C1512      N1514   1.157       .  T
C1517      C1522   1.409       .  A
C1518      C1519   1.418       .  A
C1518      C1523   1.450       .  S
C1519      C1520   1.416       .  A
C1519      C1526   1.449       .  S
C1521      C1522   1.415       .  A
C1521      C1524   1.449       .  S
C1522      C1525   1.448       .  S
C1523      N1530   1.157       .  T
C1524      N1529   1.156       .  T
C1525      N1527   1.157       .  T
C1526      N1528   1.157       .  T
C1531      C1532   1.415       .  A
C1531      C1536   1.411       .  A
C1532      C1533   1.410       .  A
C1532      C1537   1.451       .  S
C1533      C1534   1.408       .  A
C1533      C1540   1.450       .  S
C1534      C1535   1.415       .  A
C1535      C1536   1.415       .  A
C1535      C1538   1.451       .  S
C1536      C1539   1.448       .  S
C1537      N1544   1.157       .  T
C1538      N1543   1.157       .  T
C1539      N1541   1.156       .  T
C1540      N1542   1.157       .  T
C1545      C1546   1.430       .  A
C1545      C1550   1.406       .  A
C1546      C1547   1.412       .  A
C1546      C1551   1.453       .  S
C1547      C1554   1.452       .  S
C1548      C1549   1.422       .  A
C1549      C1552   1.452       .  S
C1550      C1553   1.450       .  S
C1551      N1558   1.158       .  T
C1552      N1557   1.158       .  T
C1553      N1555   1.158       .  T
C1554      N1556   1.158   1_556  T
C1559      C1560   1.416       .  A
C1559      C1564   1.427       .  A
C1560      C1561   1.413       .  A
C1560      C1565   1.447       .  S
C1561      C1562   1.415       .  A
C1561      C1568   1.452       .  S
C1562      C1563   1.408       .  A
C1563      C1564   1.411       .  A
C1563      C1566   1.454       .  S
C1564      C1567   1.452       .  S
C1565      N1572   1.156       .  T
C1566      N1571   1.157       .  T
C1567      N1569   1.158       .  T
C1568      N1570   1.157       .  T
C1573      C1574   1.410       .  A
C1573      C1578   1.409       .  A
C1574      C1575   1.414       .  A
C1574      C1579   1.451       .  S
C1575      C1576   1.417       .  A
C1575      C1582   1.449       .  S
C1576      C1577   1.417       .  A
C1577      C1578   1.415       .  A
C1577      C1580   1.451       .  S
C1578      C1581   1.446       .  S
C1579      N1586   1.157       .  T
C1580      N1585   1.157       .  T
C1581      N1583   1.156       .  T
C1582      N1584   1.157       .  T
C1587      C1588   1.419       .  A
C1587      C1592   1.414       .  A
C1588      C1589   1.413       .  A
C1588      C1593   1.452       .  S
C1589      C1590   1.414       .  A
C1589      C1596   1.451       .  S
C1590      C1591   1.422       .  A
C1591      C1592   1.403       .  A
C1591      C1594   1.454       .  S
C1592      C1595   1.456       .  S
C1593      N1600   1.158       .  T
C1594      N1599   1.158       .  T
C1595      N1597   1.157       .  T
C1596      N1598   1.157       .  T
C1601      C1602   1.413       .  A
C1601      C1606   1.413       .  A
C1602      C1603   1.418       .  A
C1602      C1607   1.449       .  S
C1603      C1604   1.412       .  A
C1603      C1610   1.448       .  S
C1604      C1605   1.412       .  A
C1605      C1606   1.414       .  A
C1605      C1608   1.448       .  S
C1606      C1609   1.450       .  S
C1607      N1614   1.157       .  T
C1608      N1613   1.156       .  T
C1609      N1611   1.157       .  T
C1610      N1612   1.157       .  T
C1615      C1616   1.422       .  A
C1615      C1620   1.422       .  A
C1616      C1617   1.415       .  A
C1616      C1621   1.452       .  S
C1617      C1618   1.411       .  A
C1617      C1624   1.447       .  S
C1618      C1619   1.410       .  A
C1619      C1620   1.406       .  A
C1619      C1622   1.451       .  S
C1620      C1623   1.454       .  S
C1621      N1628   1.158       .  T
C1622      N1627   1.156       .  T
C1623      N1625   1.158       .  T
C1624      N1626   1.156       .  T
C1629      C1630   1.411       .  A
C1629      C1634   1.406       .  A
C1630      C1631   1.414       .  A
C1630      C1635   1.449       .  S
C1631      C1632   1.421       .  A
C1631      C1638   1.451       .  S
C1632      C1633   1.419       .  A
C1633      C1634   1.406       .  A
C1634      C1637   1.444       .  S
C1635      N1642   1.157       .  T
C1636      N1641   1.158       .  T
C1637      N1639   1.154       .  T
C1643      C1644   1.413       .  A
C1643      C1648   1.405       .  A
C1644      C1645   1.416       .  A
C1644      C1649   1.449       .  S
C1645      C1646   1.412       .  A
C1645      C1652   1.448       .  S
C1646      C1647   1.420       .  A
C1647      C1648   1.395       .  A
C1647      C1650   1.454       .  S
C1648      C1651   1.449       .  S
C1649      N1656   1.157       .  T
C1650      N1655   1.158       .  T
C1651      N1653   1.155       .  T
C1652      N1654   1.157       .  T
C1657      C1658   1.428       .  A
C1657      C1662   1.408       .  A
C1658      C1659   1.415       .  A
C1658      C1663   1.451       .  S
C1659      C1660   1.405       .  A
C1659      C1666   1.451       .  S
C1660      C1661   1.418       .  A
C1661      C1662   1.415       .  A
C1661      C1664   1.447       .  S
C1662      C1665   1.450       .  S
C1663      N1670   1.158       .  T
C1664      N1669   1.157       .  T
C1665      N1667   1.157       .  T
C1666      N1668   1.157       .  T
C1671      C1672   1.421       .  A
C1671      C1676   1.413       .  A
C1672      C1673   1.414       .  A
C1672      C1677   1.454   1_545  S
C1673      C1674   1.418       .  A
C1673      C1680   1.454       .  S
C1674      C1675   1.418       .  A
C1675      C1676   1.413       .  A
C1675      C1678   1.451       .  S
C1676      C1679   1.451       .  S
C1677      N1684   1.158       .  T
C1678      N1683   1.157       .  T
C1679      N1681   1.157       .  T
C1680      N1682   1.158       .  T
C1685      C1686   1.416       .  A
C1685      C1690   1.421       .  A
C1686      C1687   1.418       .  A
C1686      C1691   1.451       .  S
C1687      C1688   1.414       .  A
C1687      C1694   1.449       .  S
C1688      C1689   1.410       .  A
C1689      C1690   1.420       .  A
C1689      C1692   1.451       .  S
C1690      C1693   1.448       .  S
C1691      N1698   1.157   1_565  T
C1692      N1697   1.157       .  T
C1693      N1695   1.156       .  T
C1694      N1696   1.157       .  T
C1699      C1700   1.419       .  A
C1699      C1704   1.405       .  A
C1700      C1701   1.415       .  A
C1700      C1705   1.448       .  S
C1701      C1702   1.407       .  A
C1701      C1708   1.449       .  S
C1702      C1703   1.425       .  A
C1703      C1704   1.416       .  A
C1703      C1706   1.448       .  S
C1704      C1707   1.451       .  S
C1705      N1712   1.157       .  T
C1706      N1711   1.157       .  T
C1707      N1709   1.157       .  T
C1708      N1710   1.157       .  T
C1713      C1714   1.406       .  A
C1713      C1718   1.413       .  A
C1714      C1715   1.405       .  A
C1714      C1719   1.446       .  S
C1715      C1716   1.419       .  A
C1715      C1722   1.453       .  S
C1716      C1717   1.415       .  A
C1717      C1718   1.417       .  A
C1717      C1720   1.449       .  S
C1718      C1721   1.451       .  S
C1719      N1726   1.155       .  T
C1720      N1725   1.157       .  T
C1721      N1723   1.157       .  T
C1722      N1724   1.157       .  T
C1727      C1728   1.427       .  A
C1727      C1732   1.419       .  A
C1728      C1729   1.407       .  A
C1728      C1733   1.456       .  S
C1729      C1730   1.411       .  A
C1729      C1736   1.456   1_565  S
C1730      C1731   1.414       .  A
C1731      C1732   1.418       .  A
C1731      C1734   1.450       .  S
C1732      C1735   1.449       .  S
C1733      N1740   1.158   1_665  T
C1734      N1739   1.157       .  T
C1735      N1737   1.157       .  T
C1736      N1738   1.158       .  T
C1741      C1742   1.420       .  A
C1741      C1746   1.428       .  A
C1742      C1743   1.417       .  A
C1742      C1747   1.447       .  S
C1743      C1744   1.418       .  A
C1743      C1750   1.454       .  S
C1744      C1745   1.416       .  A
C1745      C1746   1.409       .  A
C1745      C1748   1.456       .  S
C1746      C1749   1.455       .  S
C1747      N1754   1.156       .  T
C1748      N1753   1.158       .  T
C1749      N1751   1.158       .  T
C1750      N1752   1.158       .  T
C1755      C1756   1.415       .  A
C1755      C1760   1.413   1_455  A
C1756      C1757   1.414       .  A
C1756      C1761   1.446       .  S
C1757      C1764   1.452       .  S
C1758      C1759   1.420   1_455  A
C1759      C1762   1.451       .  S
C1760      C1763   1.451       .  S
C1761      N1768   1.156       .  T
C1762      N1767   1.157       .  T
C1764      N1766   1.158       .  T
C1769      C1770   1.422       .  A
C1769      C1774   1.415       .  A
C1770      C1771   1.392       .  A
C1770      C1775   1.457       .  S
C1771      C1772   1.402       .  A
C1771      C1778   1.452       .  S
C1772      C1773   1.414       .  A
C1773      C1774   1.418       .  A
C1773      C1776   1.449       .  S
C1774      C1777   1.449       .  S
C1775      N1782   1.158       .  T
C1776      N1781   1.157   1_455  T
C1777      N1779   1.158       .  T
C1778      N1780   1.155       .  T
C1783      C1784   1.411       .  A
C1783      C1788   1.406       .  A
C1784      C1785   1.411       .  A
C1784      C1789   1.451       .  S
C1785      C1792   1.451   1_556  S
C1786      C1787   1.420       .  A
C1787      C1790   1.455       .  S
C1788      C1791   1.449       .  S
C1789      N1796   1.157       .  T
C1790      N1795   1.157       .  T
C1791      N1793   1.156       .  T
C1792      N1794   1.157   1_455  T
C1797      C1798   1.419       .  A
C1797      C1802   1.415       .  A
C1798      C1799   1.417       .  A
C1798      C1803   1.449       .  S
C1799      C1800   1.412       .  A
C1799      C1806   1.450       .  S
C1800      C1801   1.415       .  A
C1801      C1802   1.401       .  A
C1801      C1804   1.453       .  S
C1802      C1805   1.455   1_455  S
C1803      N1810   1.157       .  T
C1804      N1809   1.158       .  T
C1805      N1807   1.157       .  T
C1806      N1808   1.157       .  T
C1811      C1812   1.409       .  A
C1811      C1816   1.414       .  A
C1812      C1813   1.401       .  A
C1812      C1817   1.451       .  S
C1813      C1814   1.411       .  A
C1813      C1820   1.450       .  S
C1814      C1815   1.408       .  A
C1815      C1816   1.408       .  A
C1815      C1818   1.450       .  S
C1816      C1819   1.451       .  S
C1817      N1824   1.157       .  T
C1818      N1823   1.157       .  T
C1819      N1821   1.157       .  T
C1820      N1822   1.157       .  T
C1825      C1826   1.401       .  A
C1825      C1830   1.415       .  A
C1826      C1827   1.404       .  A
C1826      C1831   1.448       .  S
C1827      C1828   1.428       .  A
C1827      C1834   1.454       .  S
C1828      C1829   1.419       .  A
C1829      C1830   1.421       .  A
C1830      C1833   1.448       .  S
C1831      N1838   1.155       .  T
C1832      N1837   1.157       .  T
C1833      N1835   1.157       .  T
C1834      N1836   1.158       .  T
C1839      C1840   1.412       .  A
C1839      C1844   1.404       .  A
C1840      C1841   1.417       .  A
C1840      C1845   1.451       .  S
C1841      C1842   1.420       .  A
C1841      C1848   1.450       .  S
C1842      C1843   1.422       .  A
C1843      C1844   1.405       .  A
C1843      C1846   1.453       .  S
C1844      C1847   1.448       .  S
C1845      N1852   1.157       .  T
C1846      N1851   1.158       .  T
C1847      N1849   1.156       .  T
C1848      N1850   1.157   1_455  T
C1853      C1854   1.415       .  A
C1853      C1858   1.416       .  A
C1854      C1855   1.418       .  A
C1854      C1859   1.452       .  S
C1855      C1856   1.420       .  A
C1855      C1862   1.451       .  S
C1856      C1857   1.421       .  A
C1857      C1858   1.417       .  A
C1857      C1860   1.453       .  S
C1858      C1861   1.452       .  S
C1859      N1866   1.157       .  T
C1860      N1865   1.158       .  T
C1861      N1863   1.157       .  T
C1862      N1864   1.157       .  T
C1867      C1868   1.410       .  A
C1867      C1872   1.410       .  A
C1868      C1869   1.408       .  A
C1868      C1873   1.452       .  S
C1869      C1870   1.410       .  A
C1869      C1876   1.446       .  S
C1870      C1871   1.412       .  A
C1871      C1872   1.412       .  A
C1871      C1874   1.450       .  S
C1872      C1875   1.448       .  S
C1873      N1880   1.157       .  T
C1874      N1879   1.157       .  T
C1875      N1877   1.157       .  T
C1876      N1878   1.155       .  T
C1881      C1882   1.412       .  A
C1881      C1886   1.415       .  A
C1882      C1883   1.419       .  A
C1882      C1887   1.448       .  S
C1883      C1884   1.414       .  A
C1883      C1890   1.449       .  S
C1884      C1885   1.411       .  A
C1885      C1886   1.415       .  A
C1885      C1888   1.450       .  S
C1886      C1889   1.451       .  S
C1887      N1894   1.157       .  T
C1888      N1893   1.157       .  T
C1889      N1891   1.157       .  T
C1890      N1892   1.157       .  T
C1895      C1896   1.416       .  A
C1895      C1900   1.412       .  A
C1896      C1897   1.422       .  A
C1896      C1901   1.450       .  S
C1897      C1898   1.419       .  A
C1897      C1904   1.450       .  S
C1898      C1899   1.428       .  A
C1899      C1900   1.406       .  A
C1899      C1902   1.456       .  S
C1900      C1903   1.455       .  S
C1901      N1908   1.157       .  T
C1902      N1907   1.158       .  T
C1903      N1905   1.157       .  T
C1904      N1906   1.157       .  T
C1909      C1910   1.424       .  A
C1909      C1914   1.408       .  A
C1910      C1911   1.411       .  A
C1910      C1915   1.447       .  S
C1911      C1918   1.453   1_556  S
C1912      C1913   1.423       .  A
C1913      C1916   1.452       .  S
C1914      C1917   1.451       .  S
C1915      N1922   1.155       .  T
C1916      N1921   1.158       .  T
C1917      N1919   1.158       .  T
C1918      N1920   1.157       .  T
C1923      C1924   1.412       .  A
C1923      C1928   1.407       .  A
C1924      C1925   1.407       .  A
C1924      C1929   1.452       .  S
C1925      C1926   1.409       .  A
C1925      C1932   1.451       .  S
C1926      C1927   1.415       .  A
C1927      C1928   1.410       .  A
C1927      C1930   1.451       .  S
C1928      C1931   1.451       .  S
C1929      N1936   1.157       .  T
C1930      N1935   1.157       .  T
C1931      N1933   1.157       .  T
C1932      N1934   1.157       .  T
C1937      C1938   1.417       .  A
C1937      C1942   1.411       .  A
C1938      C1939   1.413       .  A
C1938      C1943   1.452       .  S
C1939      C1940   1.415       .  A
C1939      C1946   1.451       .  S
C1940      C1941   1.419       .  A
C1941      C1942   1.398       .  A
C1941      C1944   1.454       .  S
C1942      C1945   1.455       .  S
C1943      N1950   1.157       .  T
C1944      N1949   1.157       .  T
C1945      N1947   1.158       .  T
C1946      N1948   1.158       .  T
C1951      C1952   1.422       .  A
C1951      C1956   1.419       .  A
C1952      C1953   1.405       .  A
C1952      C1957   1.452       .  S
C1953      C1954   1.403       .  A
C1953      C1960   1.452       .  S
C1954      C1955   1.409       .  A
C1955      C1956   1.412       .  A
C1955      C1958   1.452       .  S
C1956      C1959   1.451       .  S
C1957      N1964   1.157       .  T
C1958      N1963   1.157       .  T
C1959      N1961   1.157       .  T
C1960      N1962   1.157       .  T
C1965      C1966   1.422       .  A
C1965      C1970   1.418       .  A
C1966      C1967   1.407       .  A
C1966      C1971   1.455       .  S
C1967      C1968   1.413       .  A
C1967      C1974   1.453   1_565  S
C1968      C1969   1.414       .  A
C1969      C1970   1.421       .  A
C1969      C1972   1.449       .  S
C1970      C1973   1.449       .  S
C1971      N1978   1.157   1_565  T
C1972      N1977   1.157       .  T
C1973      N1975   1.157       .  T
C1974      N1976   1.157       .  T
C1979      C1980   1.420       .  A
C1979      C1984   1.418       .  A
C1980      C1981   1.408       .  A
C1980      C1985   1.453       .  S
C1981      C1982   1.408       .  A
C1981      C1988   1.449       .  S
C1982      C1983   1.411       .  A
C1983      C1984   1.415       .  A
C1983      C1986   1.451       .  S
C1984      C1987   1.450       .  S
C1985      N1992   1.157       .  T
C1986      N1991   1.157       .  T
C1987      N1989   1.157       .  T
C1988      N1990   1.156       .  T
C1993      C1994   1.419       .  A
C1993      C1998   1.416       .  A
C1994      C1999   1.457       .  S
C1995      C1996   1.420       .  A
C1995      C2002   1.456       .  S
C1996      C1997   1.415       .  A
C1997      C2000   1.448       .  S
C1998      C2001   1.447       .  S
C1999      N2006   1.158       .  T
C2000      N2005   1.157       .  T
C2001      N2003   1.157       .  T
C2002      N2004   1.157       .  T
C2007      C2008   1.413       .  A
C2007      C2012   1.427       .  A
C2008      C2009   1.412       .  A
C2008      C2013   1.450       .  S
C2009      C2010   1.419       .  A
C2009      C2016   1.453       .  S
C2010      C2011   1.410       .  A
C2011      C2012   1.405       .  A
C2011      C2014   1.455       .  S
C2012      C2015   1.455       .  S
C2013      N2020   1.157       .  T
C2014      N2019   1.158       .  T
C2015      N2017   1.157       .  T
C2016      N2018   1.158       .  T
C2021      C2022   1.412       .  A
C2021      C2026   1.408       .  A
C2022      C2023   1.412       .  A
C2022      C2027   1.450       .  S
C2023      C2024   1.410       .  A
C2023      C2030   1.451       .  S
C2024      C2025   1.413       .  A
C2025      C2026   1.405       .  A
C2025      C2028   1.452       .  S
C2026      C2029   1.451       .  S
C2027      N2034   1.157       .  T
C2028      N2033   1.157       .  T
C2029      N2031   1.157       .  T
C2030      N2032   1.157       .  T
C2035      C2036   1.417       .  A
C2035      C2040   1.410       .  A
C2036      C2037   1.417       .  A
C2036      C2041   1.445       .  S
C2037      C2038   1.412       .  A
C2037      C2044   1.450       .  S
C2038      C2039   1.428       .  A
C2039      C2040   1.407       .  A
C2040      C2043   1.450       .  S
C2041      N2048   1.155   1_565  T
C2042      N2047   1.158       .  T
C2043      N2045   1.156       .  T
C2044      N2046   1.157       .  T
