geometry optimzed in LAMMPS
_audit_creation_date              2020-12-01 
_audit_creation_method            'lammps2cif' 
_symmetry_space_group_name_H-M    'P1' 
_symmetry_Int_Tables_number       1 
_symmetry_cell_setting            triclinic 
loop_ 
_symmetry_equiv_pos_as_xyz 
  x,y,z 
_cell_length_a                    48.12753878 
_cell_length_b                    48.198863011790365 
_cell_length_c                    34.06333570822489 
_cell_angle_alpha                 90.12786333355345 
_cell_angle_beta                  90.04585910292778 
_cell_angle_gamma                 90.35083559299443 
loop_ 
_atom_site_label 
_atom_site_type_symbol 
_atom_site_fract_x 
_atom_site_fract_y 
_atom_site_fract_z 
_atom_site_charge 
O1          O  0.60848940  0.11576487  0.63046663    -0.81300
O2          O  0.52746120  0.10454047  0.76278581    -0.66000
O3          O  0.59227077  0.09559287  0.70240739    -1.12600
C4          C  0.53395547  0.03322107  0.63227537     1.05600
O5          O  0.52205288  0.05939005  0.77009270    -0.79200
O6          O  0.55323370  0.02291772  0.72764315    -0.66800
Ni7        Ni  0.61193486  0.12740773  0.68427022     1.34900
C8          C  0.57818461  0.02191205  0.71570058     0.84300
O9          O  0.57831276  0.12513378  0.76908456    -0.79700
O10         O  0.61645206  0.14046258  0.73739532    -0.90000
C11         C  0.51675706  0.08418346  0.78052653     0.83900
O12         O  0.58210779  0.15297296  0.67638705    -0.68200
O13         O  0.52014399  0.03127681  0.66416927    -0.87500
C14         C  0.55652954  0.15199446  0.68521647     0.84700
C15         C  0.60091092  0.13900833  0.76780032     1.06300
H16         H  0.52988527  0.08737227  0.68058193     0.38100
O17         O  0.54291571  0.07695237  0.69620653    -1.10200
O18         O  0.58904037  0.03967386  0.69262631    -0.66800
Ni19       Ni  0.57511174  0.07167065  0.66475141     1.26300
O20         O  0.54588096  0.13202653  0.70418909    -0.67000
O21         O  0.55606137  0.04786261  0.62843162    -0.79300
C22         C  0.61726183  0.09249207  0.61814869     0.84100
O23         O  0.60805625  0.07004187  0.63295941    -0.66500
Ni24       Ni  0.52250682  0.04623211  0.71619321     1.27400
Ni25       Ni  0.56007902  0.10104420  0.73292638     1.26100
H26         H  0.60520550  0.08499487  0.71796562     0.38700
O27         O  0.46595309  0.90666919  0.26216442    -0.81300
O28         O  0.37942098  0.89605695  0.39622394    -0.66000
O29         O  0.44584800  0.88828265  0.33583372    -1.12600
C30         C  0.39117549  0.82383518  0.26414610     1.05600
O31         O  0.37784439  0.85031570  0.40024419    -0.79200
O32         O  0.40817389  0.81355710  0.35895863    -0.66800
Ni33       Ni  0.46661928  0.91872715  0.31631826     1.34900
C34         C  0.43368605  0.81425040  0.34957159     0.84300
O35         O  0.43152288  0.91845887  0.40262243    -0.79700
O36         O  0.46936215  0.93241361  0.36859187    -0.90000
C37         C  0.36939703  0.87404874  0.41130429     0.83900
O38         O  0.43673442  0.94321436  0.30614212    -0.68200
O39         O  0.37542557  0.82206714  0.29427479    -0.87500
C40         C  0.41121557  0.94368863  0.31530627     0.84700
C41         C  0.45467175  0.93163203  0.39976281     1.06300
H42         H  0.38403212  0.87918548  0.31223376     0.38100
O43         O  0.39692395  0.86904575  0.32841061    -1.10200
O44         O  0.44401782  0.83309961  0.32802658    -0.66800
Ni45       Ni  0.42978234  0.86387410  0.29870381     1.26300
O46         O  0.39942801  0.92519854  0.33623733    -0.67000
O47         O  0.41270931  0.83922924  0.26237937    -0.79300
C48         C  0.47192630  0.88230871  0.25071227     0.84100
O49         O  0.46293039  0.86133303  0.26906278    -0.66500
Ni50       Ni  0.37745256  0.83713983  0.34680756     1.27400
Ni51       Ni  0.41309649  0.89388251  0.36599395     1.26100
H52         H  0.45854877  0.87800330  0.35216748     0.38700
O53         O  0.61190585  0.84886771  0.87306272    -0.81300
O54         O  0.62136671  0.77010042  0.01055459    -0.66000
O55         O  0.62988654  0.83401515  0.94728206    -1.12600
C56         C  0.69529878  0.77724986  0.88187947     1.05600
O57         O  0.66658855  0.76526863  0.01891916    -0.79200
O58         O  0.70288065  0.79789168  0.97833598    -0.66800
Ni59       Ni  0.59801983  0.85195329  0.92601607     1.34900
C60         C  0.70359555  0.82271743  0.96604897     0.84300
O61         O  0.59915675  0.82039355  0.01259137    -0.79700
O62         O  0.58254485  0.85643323  0.97788093    -0.90000
C63         C  0.64167016  0.76007297  0.02929756     0.83900
O64         O  0.57389012  0.82073930  0.91691516    -0.68200
O65         O  0.69720550  0.76406442  0.91426390    -0.87500
C66         C  0.57491350  0.79563913  0.92797585     0.84700
C67         C  0.58393054  0.84180450  0.00912523     1.06300
H68         H  0.64010454  0.77174580  0.92807103     0.38100
O69         O  0.64994548  0.78527206  0.94387255    -1.10200
O70         O  0.68638917  0.83255791  0.94135346    -0.66800
Ni71       Ni  0.65538625  0.81726209  0.91184311     1.26300
O72         O  0.59434467  0.78636788  0.94935278    -0.67000
O73         O  0.68031898  0.79875952  0.87712719    -0.79300
C74         C  0.63558741  0.85815507  0.86266840     0.84100
O75         O  0.65750899  0.84981756  0.87963571    -0.66500
Ni76       Ni  0.68085300  0.76617529  0.96558584     1.27400
Ni77       Ni  0.62457706  0.80222378  0.97883804     1.26100
H78         H  0.63964237  0.84771029  0.96289100     0.38700
O79         O  0.82274655  0.70291990  0.51567089    -0.81300
O80         O  0.83061597  0.61983833  0.65291591    -0.66000
O81         O  0.83971012  0.68458972  0.59028202    -1.12600
C82         C  0.90664751  0.62878086  0.52564492     1.05600
O83         O  0.87624244  0.62060393  0.66046257    -0.79200
O84         O  0.91477612  0.64877492  0.61809668    -0.66800
Ni85       Ni  0.80982409  0.70501656  0.56925385     1.34900
C86         C  0.91411535  0.67395695  0.60739470     0.84300
O87         O  0.80743993  0.67099040  0.65547745    -0.79700
O88         O  0.79497095  0.70887484  0.62090977    -0.90000
C89         C  0.85235919  0.61163116  0.67050687     0.83900
O90         O  0.78506672  0.67502710  0.55966731    -0.68200
O91         O  0.90708403  0.61361921  0.55643009    -0.87500
C92         C  0.78418146  0.64959321  0.56903686     0.84700
C93         C  0.79429397  0.69385666  0.65175042     1.06300
H94         H  0.84981762  0.62243562  0.57024846     0.38100
O95         O  0.85941522  0.63597506  0.58632893    -1.10200
O96         O  0.89518933  0.68361920  0.58546771    -0.66800
Ni97       Ni  0.86524372  0.66788060  0.55525674     1.26300
O98         O  0.80262852  0.63786395  0.59009004    -0.67000
O99         O  0.89132064  0.65010384  0.52173799    -0.79300
C100        C  0.84734124  0.70806557  0.50398178     0.84100
O101        O  0.86815051  0.69993212  0.52346710    -0.66500
Ni102      Ni  0.89081339  0.61770402  0.60791328     1.27400
Ni103      Ni  0.83327088  0.65254593  0.62130371     1.26100
H104        H  0.84969396  0.69758110  0.60678176     0.38700
O105        O  0.02218028  0.05791599  0.76481577    -0.81300
O106        O  0.10630600  0.07220040  0.90451198    -0.66000
O107        O  0.04184131  0.07581098  0.83931305    -1.12600
C108        C  0.09820306  0.14055490  0.76896380     1.05600
O109        O  0.10653836  0.11795884  0.90595754    -0.79200
O110        O  0.07982815  0.15412342  0.85752219    -0.66800
Ni111      Ni  0.02493656  0.04340376  0.81765797     1.34900
C112        C  0.05403974  0.15277346  0.84966982     0.84300
O113        O  0.05535232  0.04823961  0.90827388    -0.79700
O114        O  0.02490516  0.02621375  0.86856579    -0.90000
C115        C  0.11535338  0.09485203  0.91884529     0.83900
O116        O  0.05824686  0.02517516  0.80285068    -0.68200
O117        O  0.11487614  0.14085550  0.79821942    -0.87500
C118        C  0.08228362  0.02474252  0.81798450     0.84700
C119        C  0.03615343  0.03030862  0.90210805     1.06300
H120        H  0.10343178  0.08608572  0.81859829     0.38100
O121        O  0.09045098  0.09656328  0.83420616    -1.10200
O122        O  0.04295505  0.13169959  0.83331536    -0.66800
Ni123      Ni  0.05811932  0.10126057  0.80351058     1.26300
O124        O  0.08998089  0.04072065  0.84571923    -0.67000
O125        O  0.07544067  0.12683034  0.76829362    -0.79300
C126        C  0.01636034  0.08248672  0.75411591     0.84100
O127        O  0.02543365  0.10335749  0.77285482    -0.66500
Ni128      Ni  0.11003640  0.12864494  0.85167349     1.27400
Ni129      Ni  0.07382893  0.07236506  0.87200566     1.26100
H130        H  0.02765849  0.08514871  0.85436894     0.38700
O131        O  0.87570016  0.85204837  0.12934468    -0.81300
O132        O  0.95729789  0.86143715  0.26642904    -0.66000
O133        O  0.89320961  0.86942957  0.20302178    -1.12600
C134        C  0.95313903  0.93144720  0.13413045     1.05600
O135        O  0.96194164  0.90683848  0.27216531    -0.79200
O136        O  0.93459740  0.94400921  0.22617922    -0.66800
Ni137      Ni  0.87442497  0.83772850  0.18220681     1.34900
C138        C  0.90896966  0.94457031  0.21742181     0.84300
O139        O  0.90664269  0.83952790  0.26970128    -0.79700
O140        O  0.87139113  0.82158258  0.23387254    -0.90000
C141        C  0.96671905  0.88241251  0.28458873     0.83900
O142        O  0.90560248  0.81445660  0.17088838    -0.68200
O143        O  0.96819920  0.93164527  0.16505728    -0.87500
C144        C  0.93040834  0.81438323  0.18362708     0.84700
C145        C  0.88579537  0.82337084  0.26537042     1.06300
H146        H  0.95514535  0.87751346  0.18214958     0.38100
O147        O  0.94254120  0.88819986  0.19814695    -1.10200
O148        O  0.89684604  0.92570737  0.19737892    -0.66800
Ni149      Ni  0.91040867  0.89451627  0.16703813     1.26300
O150        O  0.93988843  0.83288201  0.20665638    -0.67000
O151        O  0.92956521  0.91908029  0.13160947    -0.79300
C152        C  0.86721442  0.87605835  0.11974747     0.84100
O153        O  0.87727350  0.89762951  0.13604759    -0.66500
Ni154      Ni  0.96394892  0.91839388  0.21769227     1.27400
Ni155      Ni  0.92511609  0.86409610  0.23462869     1.26100
H156        H  0.87976300  0.87942465  0.21856239     0.38700
O157        O  0.16667594  0.76533849  0.51743303    -0.81300
O158        O  0.16116375  0.85282903  0.65108377    -0.66000
O159        O  0.14956877  0.78723474  0.59038458    -1.12600
C160        C  0.08702112  0.84500155  0.52039980     1.05600
O161        O  0.11556657  0.85621124  0.65651927    -0.79200
O162        O  0.07701316  0.82706198  0.61584795    -0.66800
Ni163      Ni  0.17922022  0.76516665  0.57134191     1.34900
C164        C  0.07648398  0.80187603  0.60494301     0.84300
O165        O  0.18084503  0.80043461  0.65733521    -0.79700
O166        O  0.19365979  0.76240337  0.62343653    -0.90000
C167        C  0.13989539  0.86406950  0.66613335     0.83900
O168        O  0.20472588  0.79434188  0.55988181    -0.68200
O169        O  0.08575510  0.85993240  0.55145387    -0.87500
C170        C  0.20629607  0.81985416  0.56893927     0.84700
C171        C  0.19357557  0.77725772  0.65448662     1.06300
H172        H  0.14335243  0.84977189  0.56808899     0.38100
O173        O  0.13268131  0.83695145  0.58395441    -1.10200
O174        O  0.09448607  0.79158729  0.58208346    -0.66800
Ni175      Ni  0.12601195  0.80479714  0.55324319     1.26300
O176        O  0.18865730  0.83209779  0.59064897    -0.67000
O177        O  0.10220557  0.82349826  0.51731960    -0.79300
C178        C  0.14194213  0.76071428  0.50579429     0.84100
O179        O  0.12154762  0.77207585  0.52270089    -0.66500
Ni180      Ni  0.10160477  0.85719137  0.60347788     1.27400
Ni181      Ni  0.15694728  0.81955276  0.62092787     1.26100
H182        H  0.13847209  0.77497954  0.60659200     0.38700
O183        O  0.37367885  0.61350411  0.87713759    -0.81300
O184        O  0.36751609  0.69650277  0.00879981    -0.66000
O185        O  0.35584285  0.63114088  0.94980547    -1.12600
C186        C  0.29196898  0.68886579  0.88225620     1.05600
O187        O  0.32258010  0.70224485  0.01803758    -0.79200
O188        O  0.28471271  0.67065147  0.97881095    -0.66800
Ni189      Ni  0.38698155  0.61115527  0.93034640     1.34900
C190        C  0.28253635  0.64579585  0.96683178     0.84300
O191        O  0.38806705  0.64591915  0.01455319    -0.79700
O192        O  0.40209031  0.60754295  0.98266114    -0.90000
C193        C  0.34768387  0.70717556  0.02763314     0.83900
O194        O  0.41254621  0.64091409  0.91974361    -0.68200
O195        O  0.29124695  0.70258315  0.91432470    -0.87500
C196        C  0.41224539  0.66653361  0.92837778     0.84700
C197        C  0.40217715  0.62366002  0.01257882     1.06300
H198        H  0.34796477  0.69324915  0.92745591     0.38100
O199        O  0.33779161  0.68041214  0.94385190    -1.10200
O200        O  0.29933543  0.63462099  0.94268266    -0.66800
Ni201      Ni  0.33105737  0.64807911  0.91302559     1.26300
O202        O  0.39308147  0.67737169  0.94863123    -0.67000
O203        O  0.30658370  0.66700723  0.87725650    -0.79300
C204        C  0.34972264  0.60551996  0.86576840     0.84100
O205        O  0.32791777  0.61498534  0.88185737    -0.66500
Ni206      Ni  0.30793517  0.70107556  0.96514555     1.27400
Ni207      Ni  0.36277643  0.66360851  0.97954130     1.26100
H208        H  0.34542032  0.61846995  0.96613108     0.38700
O209        O  0.11219453  0.35053989  0.37777979    -0.81300
O210        O  0.11870903  0.27213183  0.51798051    -0.66000
O211        O  0.12965994  0.33354148  0.45094270    -1.12600
C212        C  0.18739799  0.26923295  0.38301034     1.05600
O213        O  0.16348092  0.26293646  0.52165524    -0.79200
O214        O  0.20144115  0.28837244  0.47416713    -0.66800
Ni215      Ni  0.09841594  0.35326985  0.43077617     1.34900
C216        C  0.20344694  0.31366617  0.46418547     0.84300
O217        O  0.10134530  0.32424749  0.52015065    -0.79700
O218        O  0.08304828  0.35804601  0.48289682    -0.90000
C219        C  0.13889768  0.26058673  0.53503293     0.83900
O220        O  0.07377312  0.32266378  0.42041735    -0.68200
O221        O  0.18649450  0.25475614  0.41429107    -0.87500
C222        C  0.07286891  0.29826680  0.43429748     0.84700
C223        C  0.08592869  0.34544162  0.51567525     1.06300
H224        H  0.13294439  0.27080210  0.43282133     0.38100
O225        O  0.14493767  0.28305044  0.44771856    -1.10200
O226        O  0.18529528  0.32621133  0.44371931    -0.66800
Ni227      Ni  0.15286624  0.31398116  0.41480552     1.26300
O228        O  0.09044824  0.28930210  0.45883126    -0.67000
O229        O  0.17590500  0.29298763  0.37946578    -0.79300
C230        C  0.13660672  0.35800099  0.36798409     0.84100
O231        O  0.15773529  0.34621194  0.38265915    -0.66500
Ni232      Ni  0.17401879  0.26018743  0.46686717     1.27400
Ni233      Ni  0.12317280  0.30306921  0.48456211     1.26100
H234        H  0.14083561  0.34690648  0.46518303     0.38700
O235        O  0.31814000  0.20447281  0.01653823    -0.81300
O236        O  0.33007692  0.11708637  0.15017062    -0.66000
O237        O  0.33687728  0.18345291  0.08951328    -1.12600
C238        C  0.39832424  0.12766414  0.01457274     1.05600
O239        O  0.37592110  0.11640210  0.15161532    -0.79200
O240        O  0.41274688  0.14398991  0.10626594    -0.66800
Ni241      Ni  0.30628863  0.20413925  0.07091974     1.34900
C242        C  0.41194380  0.16978153  0.09919249     0.84300
O243        O  0.30788006  0.16887281  0.15722286    -0.79700
O244        O  0.29250397  0.20602923  0.12340809    -0.90000
C245        C  0.35262582  0.10748017  0.16402720     0.83900
O246        O  0.28199327  0.17395089  0.06012811    -0.68200
O247        O  0.39943538  0.11120249  0.04393273    -0.87500
C248        C  0.28085767  0.14869201  0.07040424     0.84700
C249        C  0.29384848  0.19131934  0.15449882     1.06300
H250        H  0.34430051  0.12203869  0.06488529     0.38100
O251        O  0.35519624  0.13457155  0.08094910    -1.10200
O252        O  0.39198961  0.18112808  0.08107690    -0.66800
Ni253      Ni  0.36067444  0.16741995  0.05170550     1.26300
O254        O  0.29919255  0.13703001  0.09160664    -0.67000
O255        O  0.38467880  0.15025383  0.01459138    -0.79300
C256        C  0.34260542  0.20995024  0.00454934     0.84100
O257        O  0.36356751  0.20063293  0.02249502    -0.66500
Ni258      Ni  0.38688383  0.11435297  0.09741595     1.27400
Ni259      Ni  0.33155722  0.15067772  0.11974049     1.26100
H260        H  0.34752006  0.19617775  0.10561029     0.38700
O261        O  0.52507654  0.55953890  0.26105848    -0.81300
O262        O  0.61033478  0.56998199  0.39990005    -0.66000
O263        O  0.54524683  0.57536911  0.33575542    -1.12600
C264        C  0.60154421  0.64092525  0.26601228     1.05600
O265        O  0.61071079  0.61576363  0.40173605    -0.79200
O266        O  0.58464190  0.65302266  0.35572223    -0.66800
Ni267      Ni  0.52683042  0.54411875  0.31360485     1.34900
C268        C  0.55862264  0.65136398  0.35010785     0.84300
O269        O  0.55872261  0.54580967  0.40309044    -0.79700
O270        O  0.52573627  0.52649430  0.36439159    -0.90000
C271        C  0.61955530  0.59263104  0.41438521     0.83900
O272        O  0.55914356  0.52391377  0.29916912    -0.68200
O273        O  0.61876061  0.64033137  0.29465388    -0.87500
C274        C  0.58355440  0.52289851  0.31314407     0.84700
C275        C  0.53816522  0.52916662  0.39742651     1.06300
H276        H  0.60658992  0.58518318  0.31375671     0.38100
O277        O  0.59400450  0.59556870  0.33014291    -1.10200
O278        O  0.54719567  0.63085110  0.33292970    -0.66800
Ni279      Ni  0.56135684  0.60142744  0.30059354     1.26300
O280        O  0.59271482  0.53940256  0.33942376    -0.67000
O281        O  0.57846086  0.62772345  0.26606723    -0.79300
C282        C  0.51921686  0.58433624  0.25116450     0.84100
O283        O  0.52823392  0.60478400  0.27087502    -0.66500
Ni284      Ni  0.61425486  0.62720963  0.34789367     1.27400
Ni285      Ni  0.57745199  0.57075984  0.36753329     1.26100
H286        H  0.53152729  0.58464939  0.35168922     0.38700
O287        O  0.37686192  0.34843075  0.62927992    -0.81300
O288        O  0.45532724  0.36346782  0.76601910    -0.66000
O289        O  0.39205030  0.37052350  0.70103458    -1.12600
C290        C  0.45129266  0.43159178  0.62956649     1.05600
O291        O  0.46276901  0.40867256  0.76968902    -0.79200
O292        O  0.43082401  0.44301763  0.72543897    -0.66800
Ni293      Ni  0.37279521  0.33804406  0.68354418     1.34900
C294        C  0.40610986  0.44397459  0.71251203     0.84300
O295        O  0.40418720  0.34295115  0.77024673    -0.79700
O296        O  0.36738757  0.32590222  0.73693172    -0.90000
C297        C  0.46635897  0.38419682  0.78275986     0.83900
O298        O  0.40313037  0.31272701  0.67765889    -0.68200
O299        O  0.46417939  0.43429944  0.66220771    -0.87500
C300        C  0.42838608  0.31411539  0.68821774     0.84700
C301        C  0.38216869  0.32814280  0.76801265     1.06300
H302        H  0.45486225  0.37793999  0.68178848     0.38100
O303        O  0.44161607  0.38896296  0.69619758    -1.10200
O304        O  0.39569265  0.42618600  0.68887403    -0.66800
Ni305      Ni  0.41000985  0.39344410  0.66277859     1.26300
O306        O  0.43820014  0.33432351  0.70770297    -0.67000
O307        O  0.42964466  0.41630155  0.62528736    -0.79300
C308        C  0.36832009  0.37143099  0.61579197     0.84100
O309        O  0.37757133  0.39419461  0.62977826    -0.66500
Ni310      Ni  0.46194549  0.42025569  0.71488472     1.27400
Ni311      Ni  0.42342563  0.36612494  0.73379415     1.26100
H312        H  0.37868338  0.38152425  0.71526811     0.38700
O313        O  0.87356509  0.11671426  0.37955575    -0.81300
O314        O  0.86706037  0.19719363  0.51408309    -0.66000
O315        O  0.85510821  0.13315017  0.45208918    -1.12600
C316        C  0.79452558  0.19425638  0.38391982     1.05600
O317        O  0.82198807  0.20313012  0.52156686    -0.79200
O318        O  0.78359576  0.17500787  0.47784094    -0.66800
Ni319      Ni  0.88618481  0.11296767  0.43280849     1.34900
C320        C  0.78152807  0.15000593  0.46640978     0.84300
O321        O  0.88605619  0.14577139  0.51851447    -0.79700
O322        O  0.90044874  0.10805131  0.48535050    -0.90000
C323        C  0.84693014  0.20811935  0.53196037     0.83900
O324        O  0.91228892  0.14249837  0.42372005    -0.68200
O325        O  0.79421572  0.20823717  0.41583415    -0.87500
C326        C  0.91217534  0.16793025  0.43334788     0.84700
C327        C  0.89988326  0.12334599  0.51609201     1.06300
H328        H  0.84927855  0.19561916  0.43147554     0.38100
O329        O  0.83837023  0.18293108  0.44715879    -1.10200
O330        O  0.79903591  0.13826463  0.44388596    -0.66800
Ni331      Ni  0.83128501  0.15124955  0.41517248     1.26300
O332        O  0.89321271  0.17848288  0.45420996    -0.67000
O333        O  0.80767668  0.17138286  0.37958640    -0.79300
C334        C  0.84982752  0.10850164  0.36776526     0.84100
O335        O  0.82784375  0.11848215  0.38287711    -0.66500
Ni336      Ni  0.80893043  0.20448060  0.46771851     1.27400
Ni337      Ni  0.86209134  0.16486940  0.48333889     1.26100
H338        H  0.84418250  0.12032860  0.46756640     0.38700
O339        O  0.66661558  0.26210457  0.01552843    -0.81300
O340        O  0.65992236  0.34934759  0.14751877    -0.66000
O341        O  0.64840247  0.28321000  0.08793084    -1.12600
C342        C  0.58395456  0.33904060  0.01911747     1.05600
O343        O  0.61436146  0.35135285  0.15486515    -0.79200
O344        O  0.57680415  0.31956527  0.11666457    -0.66800
Ni345      Ni  0.67809141  0.26090488  0.06973771     1.34900
C346        C  0.57611755  0.29498483  0.10332848     0.84300
O347        O  0.68024549  0.29710510  0.15393819    -0.79700
O348        O  0.69132804  0.25751419  0.12236600    -0.90000
C349        C  0.63867468  0.35968514  0.16391189     0.83900
O350        O  0.70439353  0.28965093  0.06001092    -0.68200
O351        O  0.58165570  0.35255557  0.05133869    -0.87500
C352        C  0.70545775  0.31547983  0.06719942     0.84700
C353        C  0.69196800  0.27332704  0.15246025     1.06300
H354        H  0.64071778  0.34596628  0.06580766     0.38100
O355        O  0.63070169  0.33258152  0.08150649    -1.10200
O356        O  0.59331393  0.28617915  0.07816939    -0.66800
Ni357      Ni  0.62481657  0.30042372  0.05042703     1.26300
O358        O  0.68690353  0.32829807  0.08659173    -0.67000
O359        O  0.60078744  0.31891862  0.01438808    -0.79300
C360        C  0.64213205  0.25669572  0.00366034     0.84100
O361        O  0.62128118  0.26774108  0.01976916    -0.66500
Ni362      Ni  0.59906071  0.35104014  0.10251459     1.27400
Ni363      Ni  0.65572080  0.31574762  0.11787677     1.26100
H364        H  0.63730434  0.27116406  0.10433667     0.38700
O365        O  0.10965932  0.61602545  0.13408833    -0.81300
O366        O  0.02864028  0.60324404  0.26713884    -0.66000
O367        O  0.09332061  0.59499755  0.20620803    -1.12600
C368        C  0.03748534  0.52974832  0.13864875     1.05600
O369        O  0.02319113  0.55817312  0.27619498    -0.79200
O370        O  0.05960666  0.52473946  0.23844431    -0.66800
Ni371      Ni  0.11274841  0.62719150  0.18834482     1.34900
C372        C  0.08331600  0.52324342  0.22242009     0.84300
O373        O  0.07858894  0.62562841  0.27250373    -0.79700
O374        O  0.11730519  0.64013474  0.24161711    -0.90000
C375        C  0.01935135  0.58319941  0.28701155     0.83900
O376        O  0.08242094  0.65239014  0.18122502    -0.68200
O377        O  0.02656381  0.52552853  0.17235709    -0.87500
C378        C  0.05671039  0.65067209  0.18922619     0.84700
C379        C  0.10113058  0.63960471  0.27138471     1.06300
H380        H  0.03017032  0.58453922  0.18638747     0.38100
O381        O  0.04422263  0.57502091  0.20140235    -1.10200
O382        O  0.09122615  0.53884287  0.19442198    -0.66800
Ni383      Ni  0.07600659  0.57107164  0.16850342     1.26300
O384        O  0.04617751  0.63014908  0.20713637    -0.67000
O385        O  0.05675558  0.54753587  0.13233507    -0.79300
C386        C  0.11791277  0.59268208  0.12121116     0.84100
O387        O  0.10841663  0.57025676  0.13565029    -0.66500
Ni388      Ni  0.02649396  0.54315814  0.22323331     1.27400
Ni389      Ni  0.06111209  0.60014824  0.23706317     1.26100
H390        H  0.10634546  0.58439080  0.22157231     0.38700
O391        O  0.96427474  0.41662958  0.76476042    -0.81300
O392        O  0.87722925  0.39927354  0.89949269    -0.66000
O393        O  0.94293592  0.39494264  0.83659486    -1.12600
C394        C  0.88697551  0.33373636  0.76051301     1.05600
O395        O  0.87638549  0.35352148  0.89940518    -0.79200
O396        O  0.90582053  0.31890613  0.85346161    -0.66800
Ni397      Ni  0.96329140  0.42680399  0.82000050     1.34900
C398        C  0.93105251  0.32007794  0.84284841     0.84300
O399        O  0.92883911  0.42122311  0.90696189    -0.79700
O400        O  0.96498623  0.43931390  0.87335243    -0.90000
C401        C  0.86795790  0.37653387  0.91314587     0.83900
O402        O  0.93255008  0.45034981  0.81045993    -0.68200
O403        O  0.87218324  0.33044074  0.79134431    -0.87500
C404        C  0.90740308  0.45039249  0.82156438     0.84700
C405        C  0.95076786  0.43623060  0.90471108     1.06300
H406        H  0.88056466  0.38675961  0.81407860     0.38100
O407        O  0.89383676  0.37589895  0.82868610    -1.10200
O408        O  0.94086992  0.34006330  0.82287617    -0.66800
Ni409      Ni  0.92614685  0.37239737  0.79739258     1.26300
O410        O  0.89641948  0.43143687  0.84247775    -0.67000
O411        O  0.90820422  0.34966555  0.75897849    -0.79300
C412        C  0.96950101  0.39254998  0.75136462     0.84100
O413        O  0.95887149  0.37113173  0.76675959    -0.66500
Ni414      Ni  0.87497164  0.34303153  0.84488042     1.27400
Ni415      Ni  0.91045697  0.39868770  0.86824374     1.26100
H416        H  0.95591946  0.38386945  0.85137842     0.38700
C417        C  0.02613144  0.51380675  0.10507389    -0.01700
C418        C  0.00694665  0.49224651  0.11134744    -0.09700
C419        C  0.99370941  0.47916386  0.07987957    -0.18500
C420        C  0.99915947  0.48736449  0.04084134     0.03800
C421        C  0.01943004  0.50851410  0.03459481     0.18000
C422        C  0.03264681  0.52142360  0.06650583    -0.20000
C423        C  0.02620409  0.51693957  0.99653078    -0.21200
C424        C  0.01340820  0.50466473  0.96435417    -0.19800
C425        C  0.99325845  0.48396502  0.96952446     0.19400
C426        C  0.98543366  0.47526374  0.00777520     0.01500
C427        C  0.96418032  0.45493867  0.01110495    -0.14500
C428        C  0.95221493  0.44288631  0.97773343    -0.12200
C429        C  0.96105151  0.45068403  0.94017869     0.01100
C430        C  0.98114066  0.47168541  0.93642667    -0.24400
H431        H  0.00171966  0.48568615  0.14083776     0.09100
H432        H  0.97926905  0.46279536  0.08711560     0.12600
H433        H  0.04748956  0.53801431  0.06121806     0.11400
H434        H  0.04162357  0.53304038  0.99159143     0.12600
H435        H  0.01931154  0.51143100  0.93518460     0.11600
H436        H  0.95644253  0.44781797  0.03901250     0.08700
H437        H  0.93651630  0.42690222  0.98140553     0.11900
H438        H  0.98774554  0.47832873  0.90748255     0.13800
C439        C  0.73026439  0.33050292  0.05292794    -0.01700
C440        C  0.72861530  0.35644746  0.03469573    -0.09700
C441        C  0.75217104  0.36825040  0.01681431    -0.18500
C442        C  0.77805640  0.35432208  0.01702537     0.03800
C443        C  0.77967769  0.32890127  0.03802948     0.18000
C444        C  0.75601105  0.31737520  0.05547988    -0.20000
C445        C  0.80464429  0.31434411  0.04018613    -0.21200
C446        C  0.82778177  0.32345662  0.01972807    -0.19800
C447        C  0.82643738  0.34725552  0.99649028     0.19400
C448        C  0.80199392  0.36370082  0.99570778     0.01500
C449        C  0.80228467  0.38777050  0.97182683    -0.14500
C450        C  0.82488158  0.39356717  0.94700233    -0.12200
C451        C  0.84770592  0.37568776  0.94567997     0.01100
C452        C  0.84889964  0.35353703  0.97200717    -0.24400
H453        H  0.70886211  0.36701020  0.03276505     0.09100
H454        H  0.74937685  0.38784895  0.00218477     0.12600
H455        H  0.75744159  0.29751797  0.07029096     0.11400
H456        H  0.80601641  0.29519543  0.05669134     0.12600
H457        H  0.84652451  0.31111609  0.02075857     0.11600
H458        H  0.78485667  0.40168098  0.97037341     0.08700
H459        H  0.82366721  0.41094995  0.92698617     0.11900
H460        H  0.86677896  0.33992841  0.97152192     0.13800
C461        C  0.85292814  0.22662529  0.56524523    -0.01700
C462        C  0.87634126  0.24392325  0.56381784    -0.09700
C463        C  0.88223018  0.26223145  0.59439973    -0.18500
C464        C  0.86499104  0.26343345  0.62791129     0.03800
C465        C  0.84202763  0.24475466  0.63004344     0.18000
C466        C  0.83586478  0.22699058  0.59843945    -0.20000
C467        C  0.82548519  0.24382800  0.66376601    -0.21200
C468        C  0.83115052  0.26120761  0.69541409    -0.19800
C469        C  0.85300860  0.28044798  0.69364051     0.19400
C470        C  0.86996755  0.28217866  0.65960368     0.01500
C471        C  0.89100813  0.30276103  0.65864773    -0.14500
C472        C  0.89580669  0.31999716  0.69086129    -0.12200
C473        C  0.87982415  0.31740782  0.72505884     0.01100
C474        C  0.85812819  0.29786127  0.72591032    -0.24400
H475        H  0.88995292  0.24363619  0.53848811     0.09100
H476        H  0.90063689  0.27484250  0.59113567     0.12600
H477        H  0.81810205  0.21307731  0.59993191     0.11400
H478        H  0.80818890  0.22939952  0.66581282     0.12600
H479        H  0.81815902  0.25978436  0.72131691     0.11600
H480        H  0.90405740  0.30617551  0.63341292     0.08700
H481        H  0.91249708  0.33512691  0.68910334     0.11900
H482        H  0.84543471  0.29578336  0.75203116     0.13800
C483        C  0.77869054  0.20580233  0.35049031    -0.01700
C484        C  0.76195073  0.22922925  0.35614823    -0.09700
C485        C  0.74736740  0.24096498  0.32510416    -0.18500
C486        C  0.74905984  0.22970816  0.28691451     0.03800
C487        C  0.76607746  0.20597425  0.28120438     0.18000
C488        C  0.78050747  0.19419813  0.31286793    -0.20000
C489        C  0.76882170  0.19426803  0.24383233    -0.21200
C490        C  0.75513905  0.20569499  0.21188010    -0.19800
C491        C  0.73817264  0.22895037  0.21659338     0.19400
C492        C  0.73469166  0.24125416  0.25416214     0.01500
C493        C  0.71697628  0.26453684  0.25719620    -0.14500
C494        C  0.70348026  0.27518180  0.22423148    -0.12200
C495        C  0.70704872  0.26295975  0.18729834     0.01100
C496        C  0.72453278  0.23987223  0.18380478    -0.24400
H497        H  0.76005805  0.23874030  0.38485417     0.09100
H498        H  0.73516145  0.25898017  0.33199866     0.12600
H499        H  0.79347182  0.17619273  0.30803172     0.11400
H500        H  0.78177352  0.17623313  0.23922864     0.12600
H501        H  0.75779589  0.19621485  0.18325390     0.11600
H502        H  0.71291543  0.27490351  0.28461525     0.08700
H503        H  0.68987771  0.29282785  0.22782782     0.11900
H504        H  0.72755223  0.23020273  0.15536383     0.13800
C505        C  0.56589929  0.34678849  0.98555036    -0.01700
C506        C  0.55093730  0.37168644  0.98563675    -0.09700
C507        C  0.53410105  0.37892402  0.95375343    -0.18500
C508        C  0.53148135  0.36125406  0.92070556     0.03800
C509        C  0.54593490  0.33559810  0.92150515     0.18000
C510        C  0.56305476  0.32881695  0.95336968    -0.20000
C511        C  0.54325333  0.31671772  0.89049423    -0.21200
C512        C  0.52658152  0.32275413  0.85844589    -0.19800
C513        C  0.51267266  0.34808985  0.85617157     0.19400
C514        C  0.51507717  0.36793206  0.88695031     0.01500
C515        C  0.50137324  0.39365659  0.88207627    -0.14500
C516        C  0.48593443  0.39926173  0.84808683    -0.12200
C517        C  0.48321683  0.37925622  0.81842056     0.01100
C518        C  0.49658231  0.35372297  0.82287514    -0.24400
H519        H  0.55241018  0.38581261  0.01033258     0.09100
H520        H  0.52323009  0.39835142  0.95592960     0.12600
H521        H  0.57401449  0.30922116  0.95319941     0.11400
H522        H  0.55406652  0.29705829  0.89108234     0.12600
H523        H  0.52485659  0.30761625  0.83497297     0.11600
H524        H  0.50254367  0.40996029  0.90373453     0.08700
H525        H  0.47574730  0.41913620  0.84527488     0.11900
H526        H  0.49487472  0.33823683  0.79982168     0.13800
C527        C  0.60069230  0.49941335  0.30051885    -0.01700
C528        C  0.59424738  0.47335399  0.31585384    -0.09700
C529        C  0.60543907  0.44941065  0.29957836    -0.18500
C530        C  0.62312570  0.45077355  0.26652257     0.03800
C531        C  0.63128485  0.47748377  0.25277029     0.18000
C532        C  0.62001418  0.50162735  0.26990712    -0.20000
C533        C  0.64932761  0.47977176  0.22065782    -0.21200
C534        C  0.65779091  0.45621176  0.20017001    -0.19800
C535        C  0.64818075  0.42982251  0.21104646     0.19400
C536        C  0.63143785  0.42666553  0.24517776     0.01500
C537        C  0.62193411  0.39969044  0.25476454    -0.14500
C538        C  0.62636596  0.37744545  0.22946160    -0.12200
C539        C  0.64124977  0.38099512  0.19466719     0.01100
C540        C  0.65341541  0.40684065  0.18649916    -0.24400
H541        H  0.57941161  0.47143283  0.33964258     0.09100
H542        H  0.59896526  0.43015313  0.31275239     0.12600
H543        H  0.62494138  0.52190816  0.25798297     0.11400
H544        H  0.65608300  0.49997893  0.21038679     0.12600
H545        H  0.67085458  0.45878266  0.17451535     0.11600
H546        H  0.60961923  0.39528136  0.28038863     0.08700
H547        H  0.61688766  0.35755523  0.23615130     0.11900
H548        H  0.66470064  0.40964890  0.15923384     0.13800
C549        C  0.52723033  0.51267922  0.43108420    -0.01700
C550        C  0.53986950  0.51451736  0.46802630    -0.09700
C551        C  0.52818071  0.50142410  0.50065623    -0.18500
C552        C  0.50311149  0.48603289  0.49762755     0.03800
C553        C  0.49101089  0.48296734  0.45983656     0.18000
C554        C  0.50306704  0.49621496  0.42711482    -0.20000
C555        C  0.46674341  0.46704069  0.45509415    -0.21200
C556        C  0.45418913  0.45414824  0.48718084    -0.19800
C557        C  0.46529900  0.45720406  0.52498293     0.19400
C558        C  0.48971085  0.47355068  0.53071434     0.01500
C559        C  0.49949830  0.47705009  0.56945463    -0.14500
C560        C  0.48644233  0.46399634  0.60088523    -0.12200
C561        C  0.46307432  0.44684927  0.59530260     0.01100
C562        C  0.45229361  0.44393532  0.55712189    -0.24400
H563        H  0.55871664  0.52659235  0.47201822     0.09100
H564        H  0.53931253  0.50385803  0.52789046     0.12600
H565        H  0.49313856  0.49420264  0.39866381     0.11400
H566        H  0.45741408  0.46449726  0.42633013     0.12600
H567        H  0.43554957  0.44185756  0.48242279     0.11600
H568        H  0.51719250  0.48987478  0.57662458     0.08700
H569        H  0.49512080  0.46721167  0.62989549     0.11900
H570        H  0.43405033  0.43106998  0.55227679     0.13800
C571        C  0.43590805  0.18727683  0.11070245    -0.01700
C572        C  0.43225756  0.21523765  0.12048618    -0.09700
C573        C  0.45516148  0.23267756  0.12661094    -0.18500
C574        C  0.48258083  0.22280823  0.12172738     0.03800
C575        C  0.48609250  0.19428168  0.11225492     0.18000
C576        C  0.46289215  0.17673100  0.10795348    -0.20000
C577        C  0.51263352  0.18375146  0.10497266    -0.21200
C578        C  0.53565556  0.20128512  0.10461440    -0.19800
C579        C  0.53279059  0.22959273  0.11277146     0.19400
C580        C  0.50647415  0.24053172  0.12333914     0.01500
C581        C  0.50513406  0.26896297  0.13357085    -0.14500
C582        C  0.52833774  0.28631003  0.12964329    -0.12200
C583        C  0.55352080  0.27589403  0.11549821     0.01100
C584        C  0.55588152  0.24726979  0.10874588    -0.24400
H585        H  0.41154613  0.22378173  0.12270618     0.09100
H586        H  0.45069790  0.25405874  0.13324848     0.12600
H587        H  0.46582780  0.15518865  0.09975007     0.11400
H588        H  0.51545218  0.16202781  0.09780441     0.12600
H589        H  0.55575138  0.19274715  0.09710160     0.11600
H590        H  0.48630550  0.27851078  0.14388837     0.08700
H591        H  0.52610151  0.30824634  0.13574868     0.11900
H592        H  0.57549370  0.23885675  0.09870934     0.13800
C593        C  0.34694067  0.22669560  0.96879590    -0.01700
C594        C  0.32508344  0.23208933  0.94278200    -0.09700
C595        C  0.32942613  0.24837890  0.90938984    -0.18500
C596        C  0.35585064  0.26010688  0.90132916     0.03800
C597        C  0.37789014  0.25434962  0.92787797     0.18000
C598        C  0.37332288  0.23765821  0.96080970    -0.20000
C599        C  0.40439763  0.26552911  0.92180401    -0.21200
C600        C  0.40955272  0.28267692  0.89002742    -0.19800
C601        C  0.38839932  0.28879164  0.86332775     0.19400
C602        C  0.36127223  0.27747585  0.86822054     0.01500
C603        C  0.34094486  0.28402240  0.83967222    -0.14500
C604        C  0.34749479  0.30079368  0.80746642    -0.12200
C605        C  0.37428683  0.31186588  0.80304474     0.01100
C606        C  0.39447858  0.30596036  0.83139500    -0.24400
H607        H  0.30453620  0.22364371  0.94819620     0.09100
H608        H  0.31165887  0.25165295  0.89074140     0.12600
H609        H  0.39038491  0.23365232  0.98079489     0.11400
H610        H  0.42123802  0.26115834  0.94197553     0.12600
H611        H  0.43029204  0.29115685  0.88623864     0.11600
H612        H  0.31994082  0.27623098  0.84112008     0.08700
H613        H  0.33154230  0.30503452  0.78588671     0.11900
H614        H  0.41540484  0.31410179  0.82803683     0.13800
C615        C  0.05006083  0.27926347  0.42274606    -0.01700
C616        C  0.05514114  0.25080943  0.41887564    -0.09700
C617        C  0.03329172  0.23194800  0.41371246    -0.18500
C618        C  0.00537752  0.24094395  0.41353846     0.03800
C619        C  0.00042974  0.26999456  0.41617055     0.18000
C620        C  0.02273653  0.28883599  0.41987145    -0.20000
C621        C  0.97320446  0.27998359  0.41715056    -0.21200
C622        C  0.95075297  0.26171778  0.41772680    -0.19800
C623        C  0.95495124  0.23301727  0.41671242     0.19400
C624        C  0.98222310  0.22216602  0.41310567     0.01500
C625        C  0.98508570  0.19296566  0.41088161    -0.14500
C626        C  0.96207056  0.17535179  0.41509848    -0.12200
C627        C  0.93555987  0.18621843  0.42162707     0.01100
C628        C  0.93206332  0.21509027  0.42098584    -0.24400
H629        H  0.07617668  0.24302833  0.42075425     0.09100
H630        H  0.03888626  0.21038857  0.41162598     0.12600
H631        H  0.01869146  0.31082635  0.42322651     0.11400
H632        H  0.96926105  0.30206531  0.41895726     0.12600
H633        H  0.92996554  0.27010055  0.41997861     0.11600
H634        H  0.00489974  0.18308024  0.40685931     0.08700
H635        H  0.96527842  0.15312568  0.41514907     0.11900
H636        H  0.91151809  0.22370425  0.42530917     0.13800
C637        C  0.22859709  0.32865273  0.47702261    -0.01700
C638        C  0.22682398  0.35316347  0.49882958    -0.09700
C639        C  0.25054068  0.36449639  0.51673855    -0.18500
C640        C  0.27676378  0.35149750  0.51309989     0.03800
C641        C  0.27854733  0.32775924  0.48833781     0.18000
C642        C  0.25459835  0.31662453  0.47073853    -0.20000
C643        C  0.30394515  0.31433535  0.48292219    -0.21200
C644        C  0.32726393  0.32257869  0.50402970    -0.19800
C645        C  0.32574117  0.34451050  0.53089316     0.19400
C646        C  0.30087825  0.36010092  0.53470016     0.01500
C647        C  0.30093635  0.38257538  0.56159558    -0.14500
C648        C  0.32388980  0.38776463  0.58593134    -0.12200
C649        C  0.34730812  0.37075477  0.58418950     0.01100
C650        C  0.34849626  0.34989209  0.55558541    -0.24400
H651        H  0.20682151  0.36275107  0.50374572     0.09100
H652        H  0.24752527  0.38284060  0.53432009     0.12600
H653        H  0.25596266  0.29779662  0.45332751     0.11400
H654        H  0.30550889  0.29658386  0.46346713     0.12600
H655        H  0.34633917  0.31100201  0.50046134     0.11600
H656        H  0.28319345  0.39581596  0.56555303     0.08700
H657        H  0.32259884  0.40399258  0.60789679     0.11900
H658        H  0.36674689  0.33683808  0.55393371     0.13800
C659        C  0.27818880  0.20151204  0.18890321    -0.01700
C660        C  0.27848321  0.18725195  0.22461150    -0.09700
C661        C  0.26401198  0.19748168  0.25700656    -0.18500
C662        C  0.24873355  0.22247129  0.25463099     0.03800
C663        C  0.24833703  0.23666986  0.21820036     0.18000
C664        C  0.26290136  0.22615850  0.18600315    -0.20000
C665        C  0.23344660  0.26134529  0.21399160    -0.21200
C666        C  0.21874876  0.27231464  0.24537402    -0.19800
C667        C  0.21867859  0.25890797  0.28171951     0.19400
C668        C  0.23377677  0.23385771  0.28693067     0.01500
C669        C  0.23326926  0.22131625  0.32427899    -0.14500
C670        C  0.21817902  0.23290583  0.35490304    -0.12200
C671        C  0.20308266  0.25744358  0.34965984     0.01100
C672        C  0.20355253  0.27042447  0.31293683    -0.24400
H673        H  0.29001426  0.16814560  0.22764567     0.09100
H674        H  0.26523117  0.18529612  0.28339700     0.12600
H675        H  0.26233711  0.23744677  0.15851997     0.11400
H676        H  0.23312557  0.27222843  0.18618137     0.12600
H677        H  0.20736215  0.29141598  0.24118190     0.11600
H678        H  0.24433260  0.20255561  0.33094174     0.08700
H679        H  0.21851871  0.22247778  0.38303038     0.11900
H680        H  0.19208794  0.28946672  0.30854392     0.13800
C681        C  0.07028742  0.35527530  0.55049981    -0.01700
C682        C  0.05649617  0.38083885  0.55080095    -0.09700
C683        C  0.04095329  0.38913654  0.58355443    -0.18500
C684        C  0.03848761  0.37183718  0.61695114     0.03800
C685        C  0.05296723  0.34619940  0.61649279     0.18000
C686        C  0.06866081  0.33836839  0.58381626    -0.20000
C687        C  0.05139777  0.32808154  0.64838417    -0.21200
C688        C  0.03516593  0.33448312  0.68062183    -0.19800
C689        C  0.02023361  0.35922824  0.68185768     0.19400
C690        C  0.02188300  0.37858679  0.65047707     0.01500
C691        C  0.00655198  0.40349931  0.65407176    -0.14500
C692        C  0.98996811  0.40855624  0.68717009    -0.12200
C693        C  0.98794548  0.38882362  0.71718126     0.01100
C694        C  0.00334720  0.36442106  0.71436659    -0.24400
H695        H  0.05760866  0.39444478  0.52558309     0.09100
H696        H  0.03080874  0.40896759  0.58169570     0.12600
H697        H  0.07915723  0.31851781  0.58410698     0.11400
H698        H  0.06250527  0.30858000  0.64816226     0.12600
H699        H  0.03407325  0.31980630  0.70464992     0.11600
H700        H  0.00685207  0.41931321  0.63174580     0.08700
H701        H  0.97818982  0.42760065  0.68884846     0.11900
H702        H  0.00217138  0.34924945  0.73780718     0.13800
C703        C  0.10171864  0.50124207  0.23642492    -0.01700
C704        C  0.10342044  0.47643720  0.21528054    -0.09700
C705        C  0.11455719  0.45271342  0.23260806    -0.18500
C706        C  0.12410961  0.45324040  0.27191952     0.03800
C707        C  0.12477244  0.47928425  0.29168128     0.18000
C708        C  0.11330705  0.50289650  0.27398148    -0.20000
C709        C  0.13539098  0.48127065  0.32982549    -0.21200
C710        C  0.14377888  0.45764454  0.34980352    -0.19800
C711        C  0.14097244  0.43140162  0.33251951     0.19400
C712        C  0.13150520  0.42877717  0.29308375     0.01500
C713        C  0.12770952  0.40167293  0.27774907    -0.14500
C714        C  0.13117797  0.37833965  0.30152932    -0.12200
C715        C  0.13966503  0.38124853  0.34054497     0.01100
C716        C  0.14561213  0.40767883  0.35543689    -0.24400
H717        H  0.09454375  0.47496539  0.18609417     0.09100
H718        H  0.11461576  0.43411592  0.21498513     0.12600
H719        H  0.11198521  0.52222817  0.29022544     0.11400
H720        H  0.13642531  0.50113246  0.34475876     0.12600
H721        H  0.15113116  0.45978416  0.37974882     0.11600
H722        H  0.12037725  0.39787765  0.24831759     0.08700
H723        H  0.12608279  0.35799095  0.28990684     0.11900
H724        H  0.15154010  0.40987035  0.38603294     0.13800
C725        C  0.25777097  0.63046737  0.98019582    -0.01700
C726        C  0.25952841  0.60660366  0.00330955    -0.09700
C727        C  0.23568734  0.59584465  0.02173196    -0.18500
C728        C  0.20951666  0.60896308  0.01755340     0.03800
C729        C  0.20794544  0.63218793  0.99197883     0.18000
C730        C  0.23183979  0.64246195  0.97356074    -0.20000
C731        C  0.18285963  0.64614979  0.98658238    -0.21200
C732        C  0.15959249  0.63891510  0.00830185    -0.19800
C733        C  0.16078703  0.61733566  0.03557573     0.19400
C734        C  0.18527928  0.60115053  0.03943343     0.01500
C735        C  0.18469593  0.57888765  0.06651108    -0.14500
C736        C  0.16171481  0.57462563  0.09113635    -0.12200
C737        C  0.13884951  0.59242592  0.08952019     0.01100
C738        C  0.13807016  0.61293125  0.06057766    -0.24400
H739        H  0.27952105  0.59714987  0.00875654     0.09100
H740        H  0.23855412  0.57801613  0.04031630     0.12600
H741        H  0.23055498  0.66090688  0.95542853     0.11400
H742        H  0.18154729  0.66361639  0.96668330     0.12600
H743        H  0.14080902  0.65095470  0.00475865     0.11600
H744        H  0.20204213  0.56509173  0.07023135     0.08700
H745        H  0.16259475  0.55849551  0.11318887     0.11900
H746        H  0.12017947  0.62646480  0.05884202     0.13800
C747        C  0.50272268  0.58941515  0.21516236    -0.01700
C748        C  0.49506676  0.56731466  0.19058914    -0.09700
C749        C  0.47937492  0.57181997  0.15675386    -0.18500
C750        C  0.47057365  0.59876322  0.14638510     0.03800
C751        C  0.47833036  0.62115066  0.17147214     0.18000
C752        C  0.49439447  0.61634970  0.20520132    -0.20000
C753        C  0.46975099  0.64817738  0.16302081    -0.21200
C754        C  0.45316652  0.65342787  0.13051035    -0.19800
C755        C  0.44508944  0.63184254  0.10533807     0.19400
C756        C  0.45403979  0.60425975  0.11242608     0.01500
C757        C  0.44599698  0.58345175  0.08519691    -0.14500
C758        C  0.42934294  0.58972762  0.05280953    -0.12200
C759        C  0.41992261  0.61678828  0.04668535     0.01100
C760        C  0.42805131  0.63774946  0.07303822    -0.24400
H761        H  0.50121700  0.54630744  0.19751027     0.09100
H762        H  0.47419911  0.55370248  0.13962706     0.12600
H763        H  0.50012139  0.63365595  0.22399818     0.11400
H764        H  0.47562400  0.66534046  0.18196511     0.12600
H765        H  0.44657523  0.67453865  0.12504009     0.11600
H766        H  0.45233587  0.56215209  0.08793894     0.08700
H767        H  0.42357082  0.57322993  0.03270027     0.11900
H768        H  0.42135327  0.65891530  0.06817149     0.13800
C769        C  0.38991761  0.46830731  0.72453157    -0.01700
C770        C  0.36511346  0.46599154  0.74568162    -0.09700
C771        C  0.35346836  0.48950597  0.76354128    -0.18500
C772        C  0.36659741  0.51587069  0.76065214     0.03800
C773        C  0.39068879  0.51800261  0.73664260     0.18000
C774        C  0.40192796  0.49442879  0.71898150    -0.20000
C775        C  0.40449001  0.54336573  0.73202517    -0.21200
C776        C  0.39605621  0.56649896  0.75285773    -0.19800
C777        C  0.37374770  0.56472505  0.77895214     0.19400
C778        C  0.35795216  0.53979124  0.78236492     0.01500
C779        C  0.33547697  0.53958792  0.80925855    -0.14500
C780        C  0.33089066  0.56219544  0.83444493    -0.12200
C781        C  0.34836067  0.58550645  0.83305615     0.01100
C782        C  0.36857769  0.58722736  0.80376603    -0.24400
H783        H  0.35558952  0.44582745  0.75016759     0.09100
H784        H  0.33485116  0.48628957  0.78055456     0.12600
H785        H  0.42107142  0.49614310  0.70229567     0.11400
H786        H  0.42264219  0.54506661  0.71333886     0.12600
H787        H  0.40790004  0.58558510  0.74990697     0.11600
H788        H  0.32209096  0.52176016  0.81286105     0.08700
H789        H  0.31500281  0.56060425  0.85684867     0.11900
H790        H  0.38183328  0.60549502  0.80229327     0.13800
C791        C  0.13689813  0.74259604  0.47135979    -0.01700
C792        C  0.15917591  0.73228851  0.44941616    -0.09700
C793        C  0.15455102  0.71513104  0.41697885    -0.18500
C794        C  0.12729896  0.70754734  0.40545493     0.03800
C795        C  0.10478455  0.71756963  0.42837017     0.18000
C796        C  0.10973062  0.73506559  0.46064593    -0.20000
C797        C  0.07744323  0.70999780  0.41906584    -0.21200
C798        C  0.07192079  0.69258939  0.38741687    -0.19800
C799        C  0.09356511  0.68278258  0.36383726     0.19400
C800        C  0.12155818  0.69033808  0.37217774     0.01500
C801        C  0.14248829  0.68067085  0.34645983    -0.14500
C802        C  0.13585948  0.66424110  0.31390616    -0.12200
C803        C  0.10832072  0.65650601  0.30625839     0.01100
C804        C  0.08729678  0.66573112  0.33155248    -0.24400
H805        H  0.18038073  0.73755115  0.45725546     0.09100
H806        H  0.17277405  0.70795391  0.40179535     0.12600
H807        H  0.09230954  0.74263586  0.47767851     0.11400
H808        H  0.06020553  0.71748311  0.43651534     0.12600
H809        H  0.05052810  0.68699051  0.38108546     0.11600
H810        H  0.16413459  0.68580337  0.35027355     0.08700
H811        H  0.15242090  0.65743132  0.29471850     0.11900
H812        H  0.06582367  0.66020527  0.32552879     0.13800
C813        C  0.20877552  0.76611836  0.68879038    -0.01700
C814        C  0.20465827  0.77676897  0.72657599    -0.09700
C815        C  0.21724285  0.76435931  0.75905552    -0.18500
C816        C  0.23442025  0.74075694  0.75465926     0.07000
C817        C  0.23928596  0.73071752  0.71610722     0.18000
C818        C  0.22656475  0.74337625  0.68386425    -0.20000
C819        C  0.25662819  0.70791107  0.70985421    -0.21200
C820        C  0.26947234  0.69481621  0.74122625    -0.19800
C821        C  0.26505969  0.70403555  0.77964724     0.19400
C822        C  0.24713194  0.72688679  0.78695323     0.01500
C823        C  0.24268538  0.73483353  0.82628797    -0.14500
C824        C  0.25649447  0.72164603  0.85680433    -0.12200
C825        C  0.27522356  0.70002290  0.84946736     0.01100
C826        C  0.27886250  0.69083500  0.81079553    -0.24400
H827        H  0.19116763  0.79438048  0.73121563     0.09100
H828        H  0.21303212  0.77370863  0.78715920     0.12600
H829        H  0.23032818  0.73514298  0.65471249     0.11400
H830        H  0.26038905  0.70020691  0.68042713     0.12600
H831        H  0.28298090  0.67737882  0.73538036     0.11600
H832        H  0.22879498  0.75128067  0.83453143     0.08700
H833        H  0.25274976  0.72889873  0.88644232     0.11900
H834        H  0.29307481  0.67398836  0.80475159     0.13800
C835        C  0.94880606  0.79083007  0.17362571    -0.01700
C836        C  0.93745664  0.76456389  0.16572728    -0.09700
C837        C  0.95441398  0.74114005  0.16377210    -0.18500
C838        C  0.98348317  0.74329990  0.16944382     0.03800
C839        C  0.99509033  0.77028209  0.17436250     0.18000
C840        C  0.97776380  0.79360085  0.17676533    -0.20000
C841        C  0.02386717  0.77376516  0.17806582    -0.21200
C842        C  0.04139068  0.75093944  0.17798748    -0.19800
C843        C  0.03052718  0.72400036  0.17532368     0.19400
C844        C  0.00138894  0.71973114  0.17120846     0.01500
C845        C  0.99139137  0.69206725  0.17083227    -0.14500
C846        C  0.00949459  0.66972962  0.17527567    -0.12200
C847        C  0.03818263  0.67406902  0.17930507     0.01100
C848        C  0.04858844  0.70128014  0.17838769    -0.24400
H849        H  0.91517880  0.76185040  0.16299087     0.09100
H850        H  0.94412294  0.72159236  0.15828450     0.12600
H851        H  0.98680628  0.81390258  0.18231210     0.11400
H852        H  0.03288111  0.79429549  0.18143958     0.12600
H853        H  0.06355508  0.75435431  0.18124179     0.11600
H854        H  0.96959521  0.68704338  0.16867602     0.08700
H855        H  0.00091112  0.64890859  0.17626492     0.11900
H856        H  0.07067904  0.70488218  0.18236463     0.13800
C857        C  0.84913508  0.08756839  0.33602513    -0.01700
C858        C  0.83269869  0.06356850  0.33878678    -0.09700
C859        C  0.83809665  0.04050712  0.31468045    -0.18500
C860        C  0.86040418  0.04086989  0.28747237     0.03800
C861        C  0.87550725  0.06614745  0.28315885     0.18000
C862        C  0.86948421  0.08910082  0.30683348    -0.20000
C863        C  0.89791305  0.06794128  0.25719549    -0.21200
C864        C  0.90706829  0.04461258  0.23734963    -0.19800
C865        C  0.89375650  0.01903166  0.24251532     0.19400
C866        C  0.86951450  0.01685246  0.26622510     0.01500
C867        C  0.85645550  0.99045482  0.26886983    -0.14500
C868        C  0.86825081  0.96696413  0.25109600    -0.12200
C869        C  0.89336584  0.96917694  0.23060550     0.01100
C870        C  0.90540914  0.99537859  0.22537116    -0.24400
H871        H  0.81697877  0.06191238  0.36141643     0.09100
H872        H  0.82550643  0.02224105  0.31941011     0.12600
H873        H  0.88216785  0.10772247  0.30454113     0.11400
H874        H  0.90926959  0.08726025  0.25357924     0.12600
H875        H  0.92526267  0.04641772  0.21876715     0.11600
H876        H  0.83755036  0.98727012  0.28525515     0.08700
H877        H  0.85848269  0.94685789  0.25502389     0.11900
H878        H  0.92459020  0.99719294  0.20880806     0.13800
C879        C  0.06935700  0.85223561  0.48633071    -0.01700
C880        C  0.05725180  0.87848845  0.48276667    -0.09700
C881        C  0.03992763  0.88462982  0.45094040    -0.18500
C882        C  0.03385410  0.86442602  0.42186539     0.03800
C883        C  0.04581172  0.83770650  0.42622163     0.18000
C884        C  0.06355085  0.83205654  0.45775370    -0.20000
C885        C  0.03984571  0.81655071  0.39930187    -0.21200
C886        C  0.02226193  0.82132217  0.36782191    -0.19800
C887        C  0.01070102  0.84753444  0.36201050     0.19400
C888        C  0.01637451  0.86958674  0.38871425     0.01500
C889        C  0.00466777  0.89583473  0.38056627    -0.14500
C890        C  0.98845891  0.90000316  0.34698347    -0.12200
C891        C  0.98303064  0.87812279  0.32088416     0.01100
C892        C  0.99390277  0.85186719  0.32902746    -0.24400
H893        H  0.06122984  0.89439154  0.50460882     0.09100
H894        H  0.03133814  0.90521650  0.45016853     0.12600
H895        H  0.07238031  0.81149625  0.46048372     0.11400
H896        H  0.04877067  0.79609621  0.40270187     0.12600
H897        H  0.01800501  0.80447057  0.34751902     0.11600
H898        H  0.00809994  0.91365352  0.39914583     0.08700
H899        H  0.98017774  0.92046696  0.34141270     0.11900
H900        H  0.98994802  0.83479181  0.30894937     0.13800
C901        C  0.03653094  0.17752321  0.85769165    -0.01700
C902        C  0.04888144  0.20391506  0.86019972    -0.09700
C903        C  0.03270713  0.22788802  0.86204874    -0.18500
C904        C  0.00335514  0.22633689  0.86173702     0.03800
C905        C  0.99088447  0.19949319  0.86169308     0.18000
C906        C  0.00743107  0.17550848  0.85920292    -0.20000
C907        C  0.96192625  0.19676380  0.86317289    -0.21200
C908        C  0.94501963  0.22008775  0.86343974    -0.19800
C909        C  0.95657738  0.24676944  0.86125463     0.19400
C910        C  0.98593163  0.25034665  0.86053752     0.01500
C911        C  0.99646723  0.27771386  0.85692306    -0.14500
C912        C  0.97863106  0.30030622  0.85250664    -0.12200
C913        C  0.94972015  0.29661328  0.85249635     0.01100
C914        C  0.93887647  0.26981530  0.85808700    -0.24400
H915        H  0.07127331  0.20619361  0.85914558     0.09100
H916        H  0.04381542  0.24734763  0.86328372     0.12600
H917        H  0.99758820  0.15523779  0.85767574     0.11400
H918        H  0.95224475  0.17640698  0.86364674     0.12600
H919        H  0.92267446  0.21718813  0.86410900     0.11600
H920        H  0.01840115  0.28225432  0.85592960     0.08700
H921        H  0.98756575  0.32077694  0.84835643     0.11900
H922        H  0.91655087  0.26664174  0.85773074     0.13800
C923        C  0.91659229  0.11544355  0.55073484    -0.01700
C924        C  0.92714319  0.08860839  0.55515510    -0.09700
C925        C  0.94340937  0.08181749  0.58779460    -0.18500
C926        C  0.94986305  0.10190563  0.61688358     0.03800
C927        C  0.93912322  0.12908206  0.61195499     0.18000
C928        C  0.92266368  0.13546472  0.57941843    -0.20000
C929        C  0.94493877  0.14994308  0.63938464    -0.21200
C930        C  0.96130501  0.14447124  0.67187646    -0.19800
C931        C  0.97214518  0.11798267  0.67778887     0.19400
C932        C  0.96659971  0.09621119  0.65056218     0.01500
C933        C  0.97802960  0.06981172  0.65841783    -0.14500
C934        C  0.99411084  0.06532096  0.69198325    -0.12200
C935        C  0.99948135  0.08697247  0.71850675     0.01100
C936        C  0.98848372  0.11323207  0.71104407    -0.24400
H937        H  0.92273903  0.07276231  0.53339088     0.09100
H938        H  0.95074073  0.06076963  0.58929253     0.12600
H939        H  0.91490931  0.15641942  0.57616255     0.11400
H940        H  0.93680839  0.17069671  0.63563937     0.12600
H941        H  0.96547319  0.16109227  0.69259342     0.11600
H942        H  0.97483810  0.05222454  0.63932522     0.08700
H943        H  0.00249418  0.04483153  0.69705011     0.11900
H944        H  0.99239279  0.13010121  0.73148528     0.13800
C945        C  0.10154951  0.00386750  0.80281321    -0.01700
C946        C  0.10538521  0.97918061  0.82347944    -0.09700
C947        C  0.11741306  0.95624129  0.80513556    -0.18500
C948        C  0.12571544  0.95749130  0.76532227     0.03800
C949        C  0.12447154  0.98362365  0.74608537     0.18000
C950        C  0.11208523  0.00640060  0.76476476    -0.20000
C951        C  0.13410355  0.98644153  0.70755819    -0.21200
C952        C  0.14334506  0.96345598  0.68675635    -0.19800
C953        C  0.14217706  0.93699685  0.70352222     0.19400
C954        C  0.13365927  0.93359142  0.74323132     0.01500
C955        C  0.13112435  0.90622469  0.75791654    -0.14500
C956        C  0.13498186  0.88331713  0.73333402    -0.12200
C957        C  0.14267213  0.88700243  0.69415874     0.01100
C958        C  0.14735910  0.91374895  0.67982466    -0.24400
H959        H  0.09748620  0.97709641  0.85311469     0.09100
H960        H  0.11918720  0.93762174  0.82240695     0.12600
H961        H  0.10922836  0.02569207  0.74896021     0.11400
H962        H  0.13372109  0.00641567  0.69301899     0.12600
H963        H  0.14993465  0.96617817  0.65658041     0.11600
H964        H  0.12435392  0.90186666  0.78742661     0.08700
H965        H  0.13077400  0.86267427  0.74446896     0.11900
H966        H  0.15260078  0.91647357  0.64909019     0.13800
C967        C  0.02537254  0.01378125  0.93546075    -0.01700
C968        C  0.00479537  0.99352743  0.92900805    -0.09700
C969        C  0.99251495  0.97949081  0.96024711    -0.18500
C970        C  0.00039147  0.98525547  0.99936540     0.03800
C971        C  0.02201558  0.00502411  0.00576927     0.18000
C972        C  0.03417944  0.01908700  0.97399550    -0.20000
C973        C  0.03121659  0.01083166  0.04388564    -0.21200
C974        C  0.01943166  0.99737556  0.07586918    -0.19800
C975        C  0.99780105  0.97818748  0.07055635     0.19400
C976        C  0.98767442  0.97207557  0.03230848     0.01500
C977        C  0.96507056  0.95328351  0.02881703    -0.14500
C978        C  0.95352017  0.94062578  0.06185938    -0.12200
C979        C  0.96415873  0.94610810  0.09934334     0.01100
C980        C  0.98620888  0.96508058  0.10341612    -0.24400
H981        H  0.99772490  0.98868791  0.89957044     0.09100
H982        H  0.97691996  0.96426042  0.95271927     0.12600
H983        H  0.05017199  0.03457033  0.97942906     0.11400
H984        H  0.04772177  0.02581291  0.04899532     0.12600
H985        H  0.02715035  0.00218054  0.10501944     0.11600
H986        H  0.95571175  0.94801536  0.00103321     0.08700
H987        H  0.93647624  0.92609923  0.05791037     0.11900
H988        H  0.99441487  0.96976927  0.13235566     0.13800
C989        C  0.10460591  0.15782366  0.73437567    -0.01700
C990        C  0.08267142  0.16735740  0.71112576    -0.09700
C991        C  0.08757316  0.18470926  0.67935885    -0.18500
C992        C  0.11484052  0.19303201  0.66935931     0.03800
C993        C  0.13723169  0.18251997  0.69203345     0.18000
C994        C  0.13192686  0.16546527  0.72472441    -0.20000
C995        C  0.16468499  0.18893607  0.68165665    -0.21200
C996        C  0.17034547  0.20530729  0.64891706    -0.19800
C997        C  0.14867149  0.21637142  0.62649730     0.19400
C998        C  0.12060858  0.21095764  0.63714379     0.01500
C999        C  0.09942093  0.22387003  0.61524715    -0.14500
C1000       C  0.10571722  0.24025331  0.58294306    -0.12200
C1001       C  0.13328589  0.24446994  0.57111231     0.01100
C1002       C  0.15477734  0.23276705  0.59339757    -0.24400
H1003       H  0.06136998  0.16175110  0.71790785     0.09100
H1004       H  0.06952350  0.19082864  0.66288908     0.12600
H1005       H  0.14904045  0.15784385  0.74229979     0.11400
H1006       H  0.18189989  0.18089403  0.69861629     0.12600
H1007       H  0.19181163  0.20949515  0.64124140     0.11600
H1008       H  0.07771061  0.22198819  0.62245030     0.08700
H1009       H  0.08866907  0.24938924  0.56681404     0.11900
H1010       H  0.17621887  0.23628990  0.58493352     0.13800
C1011       C  0.25577397  0.13331237  0.05821368    -0.01700
C1012       C  0.25697517  0.10844350  0.03706767    -0.09700
C1013       C  0.23290725  0.09754715  0.01929965    -0.18500
C1014       C  0.20709646  0.11150674  0.02226503     0.03800
C1015       C  0.20598185  0.13552408  0.04651131     0.18000
C1016       C  0.23008247  0.14597653  0.06418069    -0.20000
C1017       C  0.18117284  0.15007352  0.05123753    -0.21200
C1018       C  0.15775353  0.14262974  0.02995608    -0.19800
C1019       C  0.15861357  0.12042799  0.00356756     0.19400
C1020       C  0.18282158  0.10373340  0.00040871     0.01500
C1021       C  0.18201954  0.08112316  0.97379121    -0.14500
C1022       C  0.15906625  0.07688374  0.94907861    -0.12200
C1023       C  0.13644751  0.09501505  0.95024140     0.01100
C1024       C  0.13588319  0.11594447  0.97863396    -0.24400
H1025       H  0.27673048  0.09829761  0.03246421     0.09100
H1026       H  0.23532558  0.07887626  0.00219302     0.12600
H1027       H  0.22915277  0.16504644  0.08113827     0.11400
H1028       H  0.18020657  0.16811680  0.07023440     0.12600
H1029       H  0.13918012  0.15506763  0.03293910     0.11600
H1030       H  0.19921028  0.06709241  0.97036968     0.08700
H1031       H  0.15975858  0.06044058  0.92737252     0.11900
H1032       H  0.11816935  0.12973468  0.97995764     0.13800
C1033       C  0.93720984  0.69268915  0.61884039    -0.01700
C1034       C  0.93272873  0.72118587  0.62346979    -0.09700
C1035       C  0.95505606  0.73957407  0.62827582    -0.18500
C1036       C  0.98280236  0.73004878  0.62723884     0.03800
C1037       C  0.98715521  0.70099062  0.62339399     0.18000
C1038       C  0.96444830  0.68264071  0.62027394    -0.20000
C1039       C  0.01413668  0.69052478  0.62046657    -0.21200
C1040       C  0.03687512  0.70839375  0.61903343    -0.19800
C1041       C  0.03323915  0.73712366  0.62150090     0.19400
C1042       C  0.00631861  0.74835568  0.62739965     0.01500
C1043       C  0.00411244  0.77748748  0.63166247    -0.14500
C1044       C  0.02728734  0.79479594  0.62680530    -0.12200
C1045       C  0.05329224  0.78366058  0.61756650     0.01100
C1046       C  0.05627552  0.75474549  0.61645349    -0.24400
H1047       H  0.91182890  0.72937914  0.62242002     0.09100
H1048       H  0.94995816  0.76123786  0.63083853     0.12600
H1049       H  0.96809033  0.66064655  0.61607291     0.11400
H1050       H  0.01761028  0.66841295  0.61763288     0.12600
H1051       H  0.05740709  0.69970060  0.61509391     0.11600
H1052       H  0.98467160  0.78754226  0.63792773     0.08700
H1053       H  0.02451830  0.81705806  0.62835928     0.11900
H1054       H  0.07647103  0.74590617  0.61018841     0.13800
C1055       C  0.75931484  0.63417626  0.55558854    -0.01700
C1056       C  0.76092727  0.60931104  0.53445257    -0.09700
C1057       C  0.73722585  0.59838487  0.51562556    -0.18500
C1058       C  0.71130119  0.61224328  0.51749475     0.03800
C1059       C  0.70978278  0.63653958  0.54114639     0.18000
C1060       C  0.73350059  0.64700165  0.55991612    -0.20000
C1061       C  0.68492967  0.65121333  0.54448343    -0.21200
C1062       C  0.66175023  0.64326356  0.52301461    -0.19800
C1063       C  0.66282547  0.62037426  0.49781862     0.19400
C1064       C  0.68721240  0.60389515  0.49547710     0.01500
C1065       C  0.68662688  0.58068910  0.46982481    -0.14500
C1066       C  0.66360446  0.57548760  0.44543655    -0.12200
C1067       C  0.64064748  0.59320834  0.44599347     0.01100
C1068       C  0.64001823  0.61485704  0.47339490    -0.24400
H1069       H  0.78075832  0.59913094  0.53077228     0.09100
H1070       H  0.73999292  0.57967507  0.49871370     0.12600
H1071       H  0.73218250  0.66615131  0.57663611     0.11400
H1072       H  0.68368097  0.66958551  0.56280332     0.12600
H1073       H  0.64309943  0.65567220  0.52517939     0.11600
H1074       H  0.70402883  0.56685349  0.46698364     0.08700
H1075       H  0.66449566  0.55861945  0.42442039     0.11900
H1076       H  0.62214492  0.62846396  0.47423447     0.13800
C1077       C  0.87871735  0.80520579  0.29853818    -0.01700
C1078       C  0.85119589  0.79762604  0.30634960    -0.09700
C1079       C  0.84483254  0.78084198  0.33853370    -0.18500
C1080       C  0.86605991  0.77073610  0.36342427     0.03800
C1081       C  0.89405150  0.77752612  0.35399911     0.18000
C1082       C  0.90002670  0.79493114  0.32228251    -0.20000
C1083       C  0.91598417  0.76694892  0.37624503    -0.21200
C1084       C  0.91073030  0.75005682  0.40831387    -0.19800
C1085       C  0.88341582  0.74399626  0.41947820     0.19400
C1086       C  0.86063022  0.75425259  0.39732794     0.01500
C1087       C  0.83347432  0.74814109  0.41071770    -0.14500
C1088       C  0.82921765  0.73287359  0.44496436    -0.12200
C1089       C  0.85179176  0.72304560  0.46675661     0.01100
C1090       C  0.87881638  0.72828823  0.45338474    -0.24400
H1091       H  0.83450164  0.80512143  0.28792780     0.09100
H1092       H  0.82318279  0.77597681  0.34293875     0.12600
H1093       H  0.92146690  0.80021180  0.31566400     0.11400
H1094       H  0.93736318  0.77181403  0.36882339     0.12600
H1095       H  0.92815257  0.74220767  0.42504992     0.11600
H1096       H  0.81511219  0.75542645  0.39596806     0.08700
H1097       H  0.80810781  0.72909125  0.45467232     0.11900
H1098       H  0.89645683  0.72070597  0.46994440     0.13800
C1099       C  0.92529652  0.62210146  0.49272316    -0.01700
C1100       C  0.93435287  0.64353437  0.46813215    -0.09700
C1101       C  0.95134046  0.63809602  0.43615085    -0.18500
C1102       C  0.95960023  0.61073098  0.42718875     0.03800
C1103       C  0.95046532  0.58895978  0.45224876     0.18000
C1104       C  0.93390400  0.59487868  0.48520007    -0.20000
C1105       C  0.95724039  0.56140682  0.44354863    -0.21200
C1106       C  0.97205868  0.55492732  0.40967604    -0.19800
C1107       C  0.98110034  0.57591621  0.38426577     0.19400
C1108       C  0.97574765  0.60417920  0.39344586     0.01500
C1109       C  0.98651849  0.62474888  0.36819657    -0.14500
C1110       C  0.00061866  0.61758403  0.33420293    -0.12200
C1111       C  0.00473623  0.58971892  0.32401557     0.01100
C1112       C  0.99529717  0.56890296  0.34954379    -0.24400
H1113       H  0.92823935  0.66479949  0.47362828     0.09100
H1114       H  0.95691498  0.65576121  0.41848347     0.12600
H1115       H  0.92687229  0.57819862  0.50412178     0.11400
H1116       H  0.95040421  0.54469007  0.46252138     0.12600
H1117       H  0.97635142  0.53334933  0.40321344     0.11600
H1118       H  0.98457777  0.64663887  0.37383075     0.08700
H1119       H  0.00821900  0.63420395  0.31564973     0.11900
H1120       H  0.99889150  0.54729349  0.34238507     0.13800
C1121       C  0.85081460  0.59163359  0.70295340    -0.01700
C1122       C  0.86783290  0.59564506  0.73574486    -0.09700
C1123       C  0.87237675  0.57418729  0.76221881    -0.18500
C1124       C  0.86081710  0.54752240  0.75569416     0.03800
C1125       C  0.84181268  0.54418705  0.72398752     0.18000
C1126       C  0.83656491  0.56642301  0.69834655    -0.20000
C1127       C  0.82980771  0.51818168  0.71639286    -0.21200
C1128       C  0.83788428  0.49494593  0.73767049    -0.19800
C1129       C  0.85815640  0.49718007  0.76702568     0.19400
C1130       C  0.86910915  0.52370214  0.77749253     0.01500
C1131       C  0.88952374  0.52494416  0.80731114    -0.14500
C1132       C  0.90057376  0.50080541  0.82305227    -0.12200
C1133       C  0.89106873  0.47478295  0.81073012     0.01100
C1134       C  0.86895798  0.47294482  0.78415962    -0.24400
H1135       H  0.87872403  0.61517977  0.73992727     0.09100
H1136       H  0.88620676  0.57881905  0.78624306     0.12600
H1137       H  0.82345483  0.56330035  0.67278427     0.11400
H1138       H  0.81503557  0.51554437  0.69262507     0.12600
H1139       H  0.82914843  0.47489697  0.72988616     0.11600
H1140       H  0.89839876  0.54412406  0.81783324     0.08700
H1141       H  0.91751298  0.50242567  0.84395095     0.11900
H1142       H  0.86169520  0.45268017  0.77461387     0.13800
C1143       C  0.55189054  0.77636833  0.91747758    -0.01700
C1144       C  0.55649591  0.74770537  0.91608363    -0.09700
C1145       C  0.53439634  0.72899311  0.91178044    -0.18500
C1146       C  0.50662951  0.73833917  0.90973040     0.03800
C1147       C  0.50206706  0.76748491  0.91046112     0.18000
C1148       C  0.52462924  0.78613047  0.91345717    -0.20000
C1149       C  0.47494179  0.77782242  0.91005175    -0.21200
C1150       C  0.45221208  0.75986068  0.91084963    -0.19800
C1151       C  0.45600652  0.73108887  0.91119317     0.19400
C1152       C  0.48320859  0.71986066  0.90906249     0.01500
C1153       C  0.48571715  0.69061880  0.90761998    -0.14500
C1154       C  0.46240103  0.67334340  0.91129037    -0.12200
C1155       C  0.43588641  0.68456260  0.91660306     0.01100
C1156       C  0.43277935  0.71348248  0.91517021    -0.24400
H1157       H  0.57733985  0.73963449  0.91921042     0.09100
H1158       H  0.53965814  0.70730053  0.91177426     0.12600
H1159       H  0.52077836  0.80824697  0.91514880     0.11400
H1160       H  0.47126852  0.79998437  0.91050444     0.12600
H1161       H  0.43150887  0.76855628  0.91194639     0.11600
H1162       H  0.50546891  0.68045690  0.90444424     0.08700
H1163       H  0.46536553  0.65108830  0.91196302     0.11900
H1164       H  0.41227425  0.72238357  0.91856816     0.13800
C1165       C  0.60779676  0.65817272  0.23099449    -0.01700
C1166       C  0.58626683  0.66448565  0.20480367    -0.09700
C1167       C  0.59098200  0.68094890  0.17196978    -0.18500
C1168       C  0.61767604  0.69176547  0.16372914     0.03800
C1169       C  0.63966723  0.68517476  0.18997738     0.18000
C1170       C  0.63453440  0.66872684  0.22345488    -0.20000
C1171       C  0.66660805  0.69497805  0.18250108    -0.21200
C1172       C  0.67217833  0.71112147  0.14949606    -0.19800
C1173       C  0.65089179  0.71819897  0.12334984     0.19400
C1174       C  0.62327952  0.70877258  0.13030287     0.01500
C1175       C  0.60239115  0.71691342  0.10358482    -0.14500
C1176       C  0.60862500  0.73353390  0.07136967    -0.12200
C1177       C  0.63585713  0.74261466  0.06421151     0.01100
C1178       C  0.65697625  0.73476817  0.09034931    -0.24400
H1179       H  0.56534592  0.65685977  0.20982055     0.09100
H1180       H  0.57319930  0.68463003  0.15356254     0.12600
H1181       H  0.65140279  0.66394545  0.24338763     0.11400
H1182       H  0.68353362  0.69002118  0.20223136     0.12600
H1183       H  0.69327870  0.71825342  0.14450494     0.11600
H1184       H  0.58090794  0.71100139  0.10675481     0.08700
H1185       H  0.59186311  0.73916223  0.05174594     0.11900
H1186       H  0.67812026  0.74174948  0.08524637     0.13800
C1187       C  0.72719067  0.83982331  0.97944073    -0.01700
C1188       C  0.75333946  0.83435576  0.96358766    -0.09700
C1189       C  0.77734820  0.84507483  0.98094291    -0.18500
C1190       C  0.77594348  0.86122188  0.01558158     0.03800
C1191       C  0.74915787  0.86854796  0.02982998     0.18000
C1192       C  0.72500346  0.85776656  0.01168925    -0.20000
C1193       C  0.74676411  0.88527489  0.06332369    -0.21200
C1194       C  0.77029336  0.89339688  0.08440151    -0.19800
C1195       C  0.79676452  0.88456105  0.07293825     0.19400
C1196       C  0.80003718  0.86887806  0.03781729     0.01500
C1197       C  0.82706228  0.85971385  0.02809089    -0.14500
C1198       C  0.84928589  0.86377974  0.05380969    -0.12200
C1199       C  0.84567998  0.87804850  0.08914739     0.01100
C1200       C  0.81971699  0.88957243  0.09777273    -0.24400
H1201       H  0.75527930  0.82058648  0.93854607     0.09100
H1202       H  0.79670020  0.83952052  0.96725890     0.12600
H1203       H  0.70469016  0.86191975  0.02405468     0.11400
H1204       H  0.72649377  0.89135488  0.07404545     0.12600
H1205       H  0.76763042  0.90555582  0.11092208     0.11600
H1206       H  0.83146500  0.84791847  0.00197135     0.08700
H1207       H  0.86923021  0.85470670  0.04680864     0.11900
H1208       H  0.81682703  0.90028773  0.12549080     0.13800
C1209       C  0.71052986  0.76616281  0.84771369    -0.01700
C1210       C  0.70659617  0.77753149  0.81035554    -0.09700
C1211       C  0.71892111  0.76558469  0.77749600    -0.18500
C1212       C  0.73571335  0.74173094  0.78097986     0.03800
C1213       C  0.74043052  0.73084763  0.81908887     0.18000
C1214       C  0.72777746  0.74298034  0.85185688    -0.20000
C1215       C  0.75776275  0.70793024  0.82431412    -0.21200
C1216       C  0.77102251  0.69584972  0.79241660    -0.19800
C1217       C  0.76676006  0.70603814  0.75449061     0.19400
C1218       C  0.74845598  0.72866365  0.74813764     0.01500
C1219       C  0.74376122  0.73730384  0.70916243    -0.14500
C1220       C  0.75811143  0.72532258  0.67815948    -0.12200
C1221       C  0.77742392  0.70418457  0.68474218     0.01100
C1222       C  0.78106079  0.69405101  0.72287924    -0.24400
H1223       H  0.69352026  0.79551229  0.80627688     0.09100
H1224       H  0.71502049  0.77567658  0.74987722     0.12600
H1225       H  0.73121191  0.73409603  0.88065733     0.11400
H1226       H  0.76140839  0.69953999  0.85334823     0.12600
H1227       H  0.78474777  0.67846924  0.79745569     0.11600
H1228       H  0.72921457  0.75331762  0.70156904     0.08700
H1229       H  0.75423592  0.73297856  0.64879316     0.11900
H1230       H  0.79563764  0.67740281  0.72817698     0.13800
C1231       C  0.45206555  0.79135068  0.36231609    -0.01700
C1232       C  0.44074504  0.76551120  0.37252821    -0.09700
C1233       C  0.45779438  0.74243224  0.37762302    -0.18500
C1234       C  0.48691060  0.74446762  0.37254850     0.03800
C1235       C  0.49848646  0.77122732  0.36567989     0.18000
C1236       C  0.48108200  0.79426206  0.36052616    -0.20000
C1237       C  0.52728612  0.77462177  0.36217944    -0.21200
C1238       C  0.54476788  0.75176185  0.36303346    -0.19800
C1239       C  0.53382919  0.72490917  0.36667486     0.19400
C1240       C  0.50479149  0.72086064  0.37222264     0.01500
C1241       C  0.49475831  0.69326279  0.37470135    -0.14500
C1242       C  0.51248870  0.67075437  0.36918313    -0.12200
C1243       C  0.54087250  0.67488251  0.36216438     0.01100
C1244       C  0.55158150  0.70201662  0.36256879    -0.24400
H1245       H  0.41844887  0.76273596  0.37469953     0.09100
H1246       H  0.44747781  0.72315824  0.38453812     0.12600
H1247       H  0.49013697  0.81430377  0.35350453     0.11400
H1248       H  0.53629745  0.79502461  0.35761476     0.12600
H1249       H  0.56689643  0.75502667  0.35912966     0.11600
H1250       H  0.47311769  0.68835545  0.37906277     0.08700
H1251       H  0.50378606  0.64997143  0.36938842     0.11900
H1252       H  0.57351236  0.70543285  0.35693396     0.13800
C1253       C  0.39543819  0.96794100  0.30175377    -0.01700
C1254       C  0.37148401  0.96527499  0.27873697    -0.09700
C1255       C  0.36004263  0.98861675  0.26030704    -0.18500
C1256       C  0.37241893  0.01525532  0.26460241     0.03800
C1257       C  0.39555951  0.01777536  0.29040580     0.18000
C1258       C  0.40672167  0.99430392  0.30848717    -0.20000
C1259       C  0.40841264  0.04349358  0.29663344    -0.21200
C1260       C  0.40000263  0.06663283  0.27580494    -0.19800
C1261       C  0.37856677  0.06458491  0.24822289     0.19400
C1262       C  0.36375898  0.03918973  0.24298956     0.01500
C1263       C  0.34202438  0.03868562  0.21487503    -0.14500
C1264       C  0.33671990  0.06180858  0.19109893    -0.12200
C1265       C  0.35285448  0.08593974  0.19473319     0.01100
C1266       C  0.37298507  0.08748240  0.22428619    -0.24400
H1267       H  0.36247087  0.94496832  0.27337229     0.09100
H1268       H  0.34211512  0.98507637  0.24193933     0.12600
H1269       H  0.42512656  0.99635120  0.32673306     0.11400
H1270       H  0.42577730  0.04552646  0.31674889     0.12600
H1271       H  0.41106000  0.08605075  0.28024605     0.11600
H1272       H  0.32956284  0.02040113  0.20955511     0.08700
H1273       H  0.32117158  0.06019596  0.16818173     0.11900
H1274       H  0.38543781  0.10621990  0.22723022     0.13800
C1275       C  0.48863747  0.87811513  0.21502935    -0.01700
C1276       C  0.49112320  0.89895570  0.18666213    -0.09700
C1277       C  0.50623809  0.89435462  0.15228299    -0.18500
C1278       C  0.51965396  0.86874001  0.14561175     0.03800
C1279       C  0.51779256  0.84812665  0.17534293     0.18000
C1280       C  0.50214133  0.85284091  0.20921673    -0.20000
C1281       C  0.53161680  0.82287910  0.17128676    -0.21200
C1282       C  0.54737413  0.81754764  0.13818366    -0.19800
C1283       C  0.54914356  0.83709833  0.10803624     0.19400
C1284       C  0.53506245  0.86283716  0.11085054     0.01500
C1285       C  0.53684973  0.88126260  0.07859144    -0.14500
C1286       C  0.55251235  0.87452836  0.04537300    -0.12200
C1287       C  0.56692918  0.84940665  0.04349678     0.01100
C1288       C  0.56492532  0.83081464  0.07492785    -0.24400
H1289       H  0.48097829  0.91874920  0.19076414     0.09100
H1290       H  0.50724814  0.91127968  0.13170669     0.12600
H1291       H  0.50070254  0.83678888  0.23141396     0.11400
H1292       H  0.53038816  0.80720768  0.19400770     0.12600
H1293       H  0.55805803  0.79786468  0.13598711     0.11600
H1294       H  0.52618247  0.90085003  0.07799561     0.08700
H1295       H  0.55346216  0.88910680  0.02125145     0.11900
H1296       H  0.57554674  0.81104799  0.07364066     0.13800
C1297       C  0.35421403  0.72470737  0.06195125    -0.01700
C1298       C  0.38197972  0.73092572  0.07080317    -0.09700
C1299       C  0.38880417  0.74725256  0.10307028    -0.18500
C1300       C  0.36794523  0.75794547  0.12791253     0.03800
C1301       C  0.33975877  0.75160258  0.11888892     0.18000
C1302       C  0.33314868  0.73525209  0.08599406    -0.20000
C1303       C  0.31838189  0.76140788  0.14293861    -0.21200
C1304       C  0.32442184  0.77709098  0.17619971    -0.19800
C1305       C  0.35195571  0.78361951  0.18590123     0.19400
C1306       C  0.37410107  0.77445617  0.16155864     0.01500
C1307       C  0.40148851  0.78224542  0.17192948    -0.14500
C1308       C  0.40664215  0.79825780  0.20510978    -0.12200
C1309       C  0.38485021  0.80684411  0.22934017     0.01100
C1310       C  0.35752931  0.79937761  0.21976227    -0.24400
H1311       H  0.39870389  0.72309758  0.05269667     0.09100
H1312       H  0.41065019  0.75080852  0.10782659     0.12600
H1313       H  0.31159178  0.73052593  0.07936787     0.11400
H1314       H  0.29685195  0.75669240  0.13618634     0.12600
H1315       H  0.30743683  0.78418412  0.19444474     0.11600
H1316       H  0.41945275  0.77653910  0.15500344     0.08700
H1317       H  0.42796523  0.80372576  0.21207889     0.11900
H1318       H  0.34058495  0.80625984  0.23827553     0.13800
C1319       C  0.23075523  0.83514540  0.55423498    -0.01700
C1320       C  0.22830330  0.85895210  0.53105955    -0.09700
C1321       C  0.25166827  0.87002217  0.51178276    -0.18500
C1322       C  0.27812647  0.85745000  0.51544525     0.03800
C1323       C  0.28048007  0.83453056  0.54148218     0.18000
C1324       C  0.25698149  0.82368337  0.56029008    -0.20000
C1325       C  0.30603778  0.82156632  0.54727057    -0.21200
C1326       C  0.32912115  0.82958397  0.52576800    -0.19800
C1327       C  0.32715614  0.85065355  0.49781577     0.19400
C1328       C  0.30199779  0.86563236  0.49297484     0.01500
C1329       C  0.30161830  0.88692844  0.46430929    -0.14500
C1330       C  0.32451142  0.89143397  0.43948221    -0.12200
C1331       C  0.34828999  0.87497159  0.44273579     0.01100
C1332       C  0.34983848  0.85554387  0.47302943    -0.24400
H1333       H  0.20810170  0.86814119  0.52626731     0.09100
H1334       H  0.24829458  0.88783124  0.49332517     0.12600
H1335       H  0.25888322  0.80542749  0.57867890     0.11400
H1336       H  0.30796357  0.80439785  0.56757685     0.12600
H1337       H  0.34838314  0.81841329  0.52988148     0.11600
H1338       H  0.28353156  0.89953243  0.45930491     0.08700
H1339       H  0.32292201  0.90655940  0.41612628     0.11900
H1340       H  0.36834005  0.84293802  0.47580759     0.13800
C1341       C  0.53839865  0.17569181  0.67510242    -0.01700
C1342       C  0.54976217  0.20228902  0.67033866    -0.09700
C1343       C  0.53260770  0.22549554  0.66761349    -0.18500
C1344       C  0.50333553  0.22279358  0.66945586     0.03800
C1345       C  0.49189657  0.19556688  0.67103698     0.18000
C1346       C  0.50939800  0.17243136  0.67418306    -0.20000
C1347       C  0.46304768  0.19164479  0.67076944    -0.21200
C1348       C  0.44523402  0.21426332  0.67043001    -0.19800
C1349       C  0.45581679  0.24137164  0.67138694     0.19400
C1350       C  0.48504365  0.24605175  0.67082867     0.01500
C1351       C  0.49468825  0.27374610  0.67362846    -0.14500
C1352       C  0.47616555  0.29568793  0.67799471    -0.12200
C1353       C  0.44740732  0.29098804  0.67888741     0.01100
C1354       C  0.43734712  0.26379457  0.67457568    -0.24400
H1355       H  0.57207588  0.20537160  0.67055436     0.09100
H1356       H  0.54290428  0.24529101  0.66465043     0.12600
H1357       H  0.50037586  0.15186537  0.67711098     0.11400
H1358       H  0.45418377  0.17092462  0.67142020     0.12600
H1359       H  0.42300787  0.21050773  0.67076399     0.11600
H1360       H  0.51645616  0.27907933  0.67404887     0.08700
H1361       H  0.48447610  0.31650259  0.68136237     0.11900
H1362       H  0.41514922  0.25990501  0.67586655     0.13800
C1363       C  0.41404484  0.12073527  0.97868928    -0.01700
C1364       C  0.41652328  0.14035133  0.94857130    -0.09700
C1365       C  0.43236226  0.13485658  0.91539449    -0.18500
C1366       C  0.44641688  0.10937554  0.91113771     0.03800
C1367       C  0.44311634  0.08914044  0.94107443     0.18000
C1368       C  0.42720421  0.09502896  0.97454805    -0.20000
C1369       C  0.45583600  0.06321909  0.93751544    -0.21200
C1370       C  0.47194412  0.05697732  0.90483513    -0.19800
C1371       C  0.47613605  0.07670325  0.87531894     0.19400
C1372       C  0.46362982  0.10330341  0.87828482     0.01500
C1373       C  0.46929274  0.12290231  0.84858073    -0.14500
C1374       C  0.48645394  0.11633454  0.81724112    -0.12200
C1375       C  0.49842110  0.09002600  0.81405078     0.01100
C1376       C  0.49307196  0.07016762  0.84304241    -0.24400
H1377       H  0.40645671  0.16034288  0.95075294     0.09100
H1378       H  0.43304240  0.15102301  0.89364997     0.12600
H1379       H  0.42518489  0.07957681  0.99746531     0.11400
H1380       H  0.45327823  0.04764430  0.96014797     0.12600
H1381       H  0.48147341  0.03670687  0.90287811     0.11600
H1382       H  0.46119661  0.14367228  0.84886096     0.08700
H1383       H  0.49026655  0.13205925  0.79516707     0.11900
H1384       H  0.50254891  0.04986685  0.84092886     0.13800
C1385       C  0.63669058  0.87888842  0.83097187    -0.01700
C1386       C  0.61956282  0.87534900  0.79818748    -0.09700
C1387       C  0.61442696  0.89734913  0.77278691    -0.18500
C1388       C  0.62546002  0.92409906  0.78042055     0.03800
C1389       C  0.64455858  0.92706709  0.81208152     0.18000
C1390       C  0.65048145  0.90429370  0.83654002    -0.20000
C1391       C  0.65594502  0.95317329  0.82087885    -0.21200
C1392       C  0.64720508  0.97674601  0.80084252    -0.19800
C1393       C  0.62699336  0.97477011  0.77134544     0.19400
C1394       C  0.61662386  0.94825494  0.75971060     0.01500
C1395       C  0.59638672  0.94724940  0.72963107    -0.14500
C1396       C  0.58518901  0.97149125  0.71433818    -0.12200
C1397       C  0.59424253  0.99746942  0.72749012     0.01100
C1398       C  0.61589993  0.99916259  0.75488007    -0.24400
H1399       H  0.60900812  0.85572372  0.79322813     0.09100
H1400       H  0.60050568  0.89302223  0.74875789     0.12600
H1401       H  0.66369974  0.90708391  0.86206371     0.11400
H1402       H  0.67075922  0.95557375  0.84464283     0.12600
H1403       H  0.65551320  0.99678696  0.80954220     0.11600
H1404       H  0.58792958  0.92811661  0.71828826     0.08700
H1405       H  0.56859752  0.96995510  0.69288125     0.11900
H1406       H  0.62284058  0.01936821  0.76511574     0.13800
C1407       C  0.52322099  0.01781434  0.59793802    -0.01700
C1408       C  0.53838667  0.01697129  0.56299152    -0.09700
C1409       C  0.52797268  0.00304032  0.53027346    -0.18500
C1410       C  0.50179639  0.98949452  0.53141099     0.03800
C1411       C  0.48654594  0.99024444  0.56702407     0.18000
C1412       C  0.49732740  0.00426609  0.59975802    -0.20000
C1413       C  0.46058200  0.97710733  0.56974227    -0.21200
C1414       C  0.44935309  0.96315086  0.53763728    -0.19800
C1415       C  0.46378997  0.96210361  0.50205299     0.19400
C1416       C  0.49021326  0.97531426  0.49849171     0.01500
C1417       C  0.50392765  0.97386719  0.46204147    -0.14500
C1418       C  0.49204715  0.95992118  0.43057697    -0.12200
C1419       C  0.46606630  0.94677417  0.43398550     0.01100
C1420       C  0.45199295  0.94793712  0.46992261    -0.24400
H1421       H  0.55844412  0.02717077  0.56079337     0.09100
H1422       H  0.54100266  0.00339112  0.50461968     0.12600
H1423       H  0.48529160  0.00480745  0.62663950     0.11400
H1424       H  0.44886840  0.97763859  0.59689526     0.12600
H1425       H  0.42922597  0.95317054  0.54063597     0.11600
H1426       H  0.52389204  0.98327458  0.45663050     0.08700
H1427       H  0.50360248  0.95941782  0.40331382     0.11900
H1428       H  0.43192370  0.93782728  0.47295229     0.13800
C1429       C  0.60900497  0.15447688  0.80348469    -0.01700
C1430       C  0.63493636  0.16761064  0.80616785    -0.09700
C1431       C  0.64198715  0.18320911  0.83924775    -0.18500
C1432       C  0.62306724  0.18639047  0.87068707     0.03800
C1433       C  0.59692237  0.17265935  0.86799942     0.18000
C1434       C  0.59027791  0.15678133  0.83484828    -0.20000
C1435       C  0.57727655  0.17528904  0.89801192    -0.21200
C1436       C  0.58272430  0.19201868  0.93033398    -0.19800
C1437       C  0.60804949  0.20623266  0.93352427     0.19400
C1438       C  0.62885317  0.20318693  0.90421973     0.01500
C1439       C  0.65439415  0.21737659  0.90958335    -0.14500
C1440       C  0.65876052  0.23441769  0.94211841    -0.12200
C1441       C  0.63781142  0.23806992  0.96999707     0.01100
C1442       C  0.61260298  0.22373856  0.96576417    -0.24400
H1443       H  0.64983386  0.16602363  0.78246500     0.09100
H1444       H  0.66220937  0.19288098  0.83890861     0.12600
H1445       H  0.57007881  0.14674112  0.83316170     0.11400
H1446       H  0.55736186  0.16472973  0.89613759     0.12600
H1447       H  0.56692919  0.19405064  0.95281311     0.11600
H1448       H  0.67141822  0.21581944  0.88922699     0.08700
H1449       H  0.67846966  0.24519975  0.94508728     0.11900
H1450       H  0.59649874  0.22612814  0.98776484     0.13800
C1451       C  0.63822317  0.09264285  0.58660555    -0.01700
C1452       C  0.66169245  0.07568934  0.58844813    -0.09700
C1453       C  0.68462281  0.08085876  0.56407441    -0.18500
C1454       C  0.68461082  0.10334063  0.53730244     0.03800
C1455       C  0.65978318  0.11902534  0.53382585     0.18000
C1456       C  0.63699316  0.11341857  0.55809529    -0.20000
C1457       C  0.65831796  0.14140845  0.50790222    -0.21200
C1458       C  0.68163446  0.14992839  0.48725348    -0.19800
C1459       C  0.70687721  0.13611166  0.49182703     0.19400
C1460       C  0.70862584  0.11194907  0.51559847     0.01500
C1461       C  0.73469307  0.09847772  0.51799139    -0.14500
C1462       C  0.75835976  0.10981450  0.49995306    -0.12200
C1463       C  0.75660374  0.13476867  0.47929999     0.01100
C1464       C  0.73070961  0.14722552  0.47420936    -0.24400
H1465       H  0.66304281  0.05958284  0.61048549     0.09100
H1466       H  0.70246940  0.06776165  0.56808126     0.12600
H1467       H  0.61872231  0.12645102  0.55645885     0.11400
H1468       H  0.63930886  0.15316232  0.50483288     0.12600
H1469       H  0.68015144  0.16806810  0.46862641     0.11600
H1470       H  0.73757273  0.07967466  0.53452735     0.08700
H1471       H  0.77828619  0.09985720  0.50384813     0.11900
H1472       H  0.72935732  0.16638431  0.45764139     0.13800
loop_ 
_geom_bond_atom_site_label_1 
_geom_bond_atom_site_label_2 
_geom_bond_distance 
_geom_bond_site_symmetry_2 
_ccdc_geom_bond_type 
O1           Ni7   1.922       .  S
O1           C22   1.271       .  A
O2          Ni25   1.879       .  S
O2           C11   1.261       .  A
O3           Ni7   1.902       .  S
O3          Ni25   1.886       .  S
O3          Ni19   1.907       .  S
O3           H26   0.966       .  S
C4           O21   1.280       .  A
C4           O13   1.277       .  A
C4         C1407   1.475       .  S
O5          Ni24   1.941       .  S
O5           C11   1.273       .  A
O6          Ni24   1.903       .  S
O6            C8   1.269       .  A
Ni7          O10   1.926       .  S
Ni7          O12   1.917       .  S
C8           O18   1.274       .  A
C8         C1397   1.469   1_545  S
O9          Ni25   1.901       .  S
O9           C15   1.274       .  A
O10          C15   1.280       .  A
C11        C1375   1.471       .  S
O12          C14   1.268       .  A
O13         Ni24   1.915       .  S
C14          O20   1.266       .  A
C14        C1341   1.483       .  S
C15        C1429   1.475       .  S
H16          O17   0.966       .  S
O17         Ni25   1.891       .  S
O17         Ni19   1.903       .  S
O17         Ni24   1.900       .  S
O18         Ni19   1.936       .  S
Ni19         O23   1.923       .  S
Ni19         O21   1.915       .  S
O20         Ni25   1.917       .  S
C22          O23   1.272       .  A
C22        C1451   1.474       .  S
O27         Ni33   1.933       .  S
O27          C48   1.271       .  A
O28         Ni51   1.924       .  S
O28          C37   1.272       .  A
O29         Ni33   1.893       .  S
O29         Ni51   1.902       .  S
O29         Ni45   1.887       .  S
O29          H52   0.966       .  S
C30          O47   1.272       .  A
C30          O39   1.279       .  A
C30        C1309   1.470       .  S
O31         Ni50   1.927       .  S
O31          C37   1.273       .  A
O32         Ni50   1.916       .  S
O32          C34   1.269       .  A
Ni33         O36   1.902       .  S
Ni33         O38   1.898       .  S
C34          O44   1.269       .  A
C34        C1231   1.484       .  S
O35         Ni51   1.930       .  S
O35          C41   1.283       .  A
O36          C41   1.277       .  A
C37        C1331   1.477       .  S
O38          C40   1.268       .  A
O39         Ni50   1.932       .  S
C40          O46   1.273       .  A
C40        C1253   1.473       .  S
C41        C1419   1.477       .  S
H42          O43   0.965       .  S
O43         Ni51   1.913       .  S
O43         Ni45   1.896       .  S
O43         Ni50   1.904       .  S
O44         Ni45   1.920       .  S
Ni45         O49   1.893       .  S
Ni45         O47   1.897       .  S
O46         Ni51   1.938       .  S
C48          O49   1.264       .  A
C48        C1275   1.472       .  S
O53         Ni59   1.930       .  S
O53          C74   1.273       .  A
O54         Ni77   1.896   1_554  S
O54          C63   1.266       .  A
O55         Ni59   1.908       .  S
O55         Ni77   1.890       .  S
O55         Ni71   1.904       .  S
O55          H78   0.966       .  S
C56          O73   1.277       .  A
C56          O65   1.278       .  A
C56        C1209   1.477       .  S
O57         Ni76   1.943   1_554  S
O57          C63   1.274       .  A
O58         Ni76   1.904       .  S
O58          C60   1.269       .  A
Ni59         O62   1.930       .  S
Ni59         O64   1.919       .  S
C60          O70   1.274       .  A
C60        C1187   1.471       .  S
O61         Ni77   1.896   1_554  S
O61          C67   1.275       .  A
O62          C67   1.280   1_556  A
C63        C1177   1.484       .  S
O64          C66   1.269       .  A
O65         Ni76   1.920       .  S
C66          O72   1.269       .  A
C66        C1143   1.484       .  S
C67        C1287   1.476       .  S
H68          O69   0.966       .  S
O69         Ni77   1.894       .  S
O69         Ni71   1.908       .  S
O69         Ni76   1.904       .  S
O70         Ni71   1.939       .  S
Ni71         O75   1.919       .  S
Ni71         O73   1.909       .  S
O72         Ni77   1.921       .  S
C74          O75   1.270       .  A
C74        C1385   1.474       .  S
O79         Ni85   1.931       .  S
O79         C100   1.272       .  A
O80        Ni103   1.915       .  S
O80          C89   1.271       .  A
O81         Ni85   1.889       .  S
O81        Ni103   1.897       .  S
O81         Ni97   1.895       .  S
O81         H104   0.966       .  S
C82          O99   1.276       .  A
C82          O91   1.280       .  A
C82        C1099   1.473       .  S
O83        Ni102   1.928       .  S
O83          C89   1.273       .  A
O84        Ni102   1.915       .  S
O84          C86   1.269       .  A
Ni85         O88   1.909       .  S
Ni85         O90   1.895       .  S
C86          O96   1.269       .  A
C86        C1033   1.479       .  S
O87        Ni103   1.924       .  S
O87          C93   1.281       .  A
O88          C93   1.277       .  A
C89        C1121   1.470       .  S
O90          C92   1.268       .  A
O91        Ni102   1.931       .  S
C92          O98   1.276       .  A
C92        C1055   1.477       .  S
C93        C1221   1.474       .  S
H94          O95   0.966       .  S
O95        Ni103   1.911       .  S
O95         Ni97   1.888       .  S
O95        Ni102   1.902       .  S
O96         Ni97   1.922       .  S
Ni97        O101   1.893       .  S
Ni97         O99   1.904       .  S
O98        Ni103   1.946       .  S
C100        O101   1.266       .  A
C100       C1089   1.476       .  S
O105       Ni111   1.937       .  S
O105        C126   1.273       .  A
O106       Ni129   1.915       .  S
O106        C115   1.269       .  A
O107       Ni111   1.904       .  S
O107       Ni129   1.908       .  S
O107       Ni123   1.898       .  S
O107        H130   0.967       .  S
C108        O125   1.276       .  A
C108        O117   1.279       .  A
C108        C989   1.476       .  S
O109       Ni128   1.928       .  S
O109        C115   1.273       .  A
O110       Ni128   1.919       .  S
O110        C112   1.271       .  A
Ni111       O114   1.924       .  S
Ni111       O116   1.901       .  S
C112        O122   1.272       .  A
C112        C901   1.490       .  S
O113       Ni129   1.914       .  S
O113        C119   1.278       .  A
O114        C119   1.278       .  A
C115       C1023   1.474       .  S
O116        C118   1.266       .  A
O117       Ni128   1.929       .  S
C118        O124   1.271       .  A
C118        C945   1.466       .  S
C119        C967   1.481       .  S
H120        O121   0.965       .  S
O121       Ni129   1.912       .  S
O121       Ni123   1.889       .  S
O121       Ni128   1.900       .  S
O122       Ni123   1.930       .  S
Ni123       O127   1.891       .  S
Ni123       O125   1.910       .  S
O124       Ni129   1.934       .  S
C126        O127   1.265       .  A
C126        C935   1.476   1_455  S
O131       Ni137   1.931       .  S
O131        C152   1.273       .  A
O132       Ni155   1.894       .  S
O132        C141   1.265       .  A
O133       Ni137   1.906       .  S
O133       Ni155   1.894       .  S
O133       Ni149   1.909       .  S
O133        H156   0.967       .  S
C134        O151   1.281       .  A
C134        O143   1.278       .  A
C134        C979   1.478       .  S
O135       Ni154   1.941       .  S
O135        C141   1.274       .  A
O136       Ni154   1.904       .  S
O136        C138   1.269       .  A
Ni137       O140   1.931       .  S
Ni137       O142   1.918       .  S
C138        O148   1.274       .  A
C138        C869   1.477       .  S
O139       Ni155   1.901       .  S
O139        C145   1.275       .  A
O140        C145   1.279       .  A
C141        C891   1.480       .  S
O142        C144   1.270       .  A
O143       Ni154   1.915       .  S
C144        O150   1.269       .  A
C144        C835   1.483       .  S
C145       C1077   1.470       .  S
H146        O147   0.966       .  S
O147       Ni155   1.896       .  S
O147       Ni149   1.900       .  S
O147       Ni154   1.897       .  S
O148       Ni149   1.939       .  S
Ni149       O153   1.919       .  S
Ni149       O151   1.924       .  S
O150       Ni155   1.920       .  S
C152        O153   1.271       .  A
C152       C1199   1.473       .  S
O157       Ni163   1.933       .  S
O157        C178   1.273       .  A
O158       Ni181   1.912       .  S
O158        C167   1.269       .  A
O159       Ni163   1.899       .  S
O159       Ni181   1.903       .  S
O159       Ni175   1.902       .  S
O159        H182   0.968       .  S
C160        O177   1.276       .  A
C160        O169   1.280       .  A
C160        C879   1.482       .  S
O161       Ni180   1.928       .  S
O161        C167   1.271       .  A
O162       Ni180   1.916       .  S
O162        C164   1.269       .  A
Ni163       O166   1.910       .  S
Ni163       O168   1.902       .  S
C164        O174   1.268       .  A
C164       C1045   1.481       .  S
O165       Ni181   1.930       .  S
O165        C171   1.281       .  A
O166        C171   1.276       .  A
C167        C957   1.464       .  S
O168        C170   1.269       .  A
O169       Ni180   1.934       .  S
C170        O176   1.273       .  A
C170       C1319   1.474       .  S
C171        C813   1.482       .  S
H172        O173   0.967       .  S
O173       Ni181   1.915       .  S
O173       Ni175   1.894       .  S
O173       Ni180   1.910       .  S
O174       Ni175   1.915       .  S
Ni175       O179   1.898       .  S
Ni175       O177   1.907       .  S
O176       Ni181   1.937       .  S
C178        O179   1.265       .  A
C178        C791   1.480       .  S
O183       Ni189   1.926       .  S
O183        C204   1.273       .  A
O184       Ni207   1.883   1_554  S
O184        C193   1.262       .  A
O185       Ni189   1.905       .  S
O185       Ni207   1.890       .  S
O185       Ni201   1.917       .  S
O185        H208   0.965       .  S
C186        O203   1.281       .  A
C186        O195   1.276       .  A
C186        C825   1.481       .  S
O187       Ni206   1.935   1_554  S
O187        C193   1.272       .  A
O188       Ni206   1.897       .  S
O188        C190   1.268       .  A
Ni189       O192   1.933       .  S
Ni189       O194   1.919       .  S
C190        O200   1.275       .  A
C190        C725   1.471       .  S
O191       Ni207   1.909   1_554  S
O191        C197   1.275       .  A
O192        C197   1.280   1_556  A
C193       C1297   1.473       .  S
O194        C196   1.269       .  A
O195       Ni206   1.910       .  S
C196        O202   1.267       .  A
C196       C1155   1.483       .  S
C197        C759   1.481       .  S
H198        O199   0.966       .  S
O199       Ni207   1.896       .  S
O199       Ni201   1.903       .  S
O199       Ni206   1.897       .  S
O200       Ni201   1.940       .  S
Ni201       O205   1.919       .  S
Ni201       O203   1.929       .  S
O202       Ni207   1.916       .  S
C204        O205   1.271       .  A
C204        C781   1.473       .  S
O209       Ni215   1.928       .  S
O209        C230   1.272       .  A
O210       Ni233   1.889       .  S
O210        C219   1.264       .  A
O211       Ni215   1.912       .  S
O211       Ni233   1.889       .  S
O211       Ni227   1.913       .  S
O211        H234   0.966       .  S
C212        O229   1.281       .  A
C212        O221   1.276       .  A
C212        C671   1.479       .  S
O213       Ni232   1.939       .  S
O213        C219   1.273       .  A
O214       Ni232   1.904       .  S
O214        C216   1.270       .  A
Ni215       O218   1.938       .  S
Ni215       O220   1.919       .  S
C216        O226   1.274       .  A
C216        C637   1.471       .  S
O217       Ni233   1.904       .  S
O217        C223   1.276       .  A
O218        C223   1.280       .  A
C219       C1001   1.480       .  S
O220        C222   1.269       .  A
O221       Ni232   1.907       .  S
C222        O228   1.267       .  A
C222        C615   1.478       .  S
C223        C681   1.484       .  S
H224        O225   0.966       .  S
O225       Ni233   1.901       .  S
O225       Ni227   1.904       .  S
O225       Ni232   1.902       .  S
O226       Ni227   1.933       .  S
Ni227       O231   1.916       .  S
Ni227       O229   1.927       .  S
O228       Ni233   1.916       .  S
C230        O231   1.271       .  A
C230        C715   1.468       .  S
O235       Ni241   1.939       .  S
O235        C256   1.273       .  A
O236       Ni259   1.925       .  S
O236        C245   1.273       .  A
O237       Ni241   1.893       .  S
O237       Ni259   1.904       .  S
O237       Ni253   1.891       .  S
O237        H260   0.966       .  S
C238        O255   1.275       .  A
C238        O247   1.279       .  A
C238       C1363   1.477   1_554  S
O239       Ni258   1.923       .  S
O239        C245   1.271       .  A
O240       Ni258   1.912       .  S
O240        C242   1.268       .  A
Ni241       O244   1.910       .  S
Ni241       O246   1.896       .  S
C242        O252   1.269       .  A
C242        C571   1.477       .  S
O243       Ni259   1.925       .  S
O243        C249   1.282       .  A
O244        C249   1.278       .  A
C245       C1265   1.475       .  S
O246        C248   1.268       .  A
O247       Ni258   1.926       .  S
C248        O254   1.274       .  A
C248       C1011   1.472       .  S
C249        C659   1.479       .  S
H250        O251   0.966       .  S
O251       Ni259   1.911       .  S
O251       Ni253   1.890       .  S
O251       Ni258   1.900       .  S
O252       Ni253   1.921       .  S
Ni253       O257   1.891       .  S
Ni253       O255   1.904       .  S
O254       Ni259   1.939       .  S
C256        O257   1.264       .  A
C256        C593   1.477   1_554  S
O261       Ni267   1.942       .  S
O261        C282   1.276       .  A
O262       Ni285   1.929       .  S
O262        C271   1.274       .  A
O263       Ni267   1.898       .  S
O263       Ni285   1.904       .  S
O263       Ni279   1.900       .  S
O263        H286   0.966       .  S
C264        O281   1.277       .  A
C264        O273   1.280       .  A
C264       C1165   1.485       .  S
O265       Ni284   1.924       .  S
O265        C271   1.272       .  A
O266       Ni284   1.916       .  S
O266        C268   1.269       .  A
Ni267       O270   1.930       .  S
Ni267       O272   1.904       .  S
C268        O278   1.270       .  A
C268       C1243   1.481       .  S
O269       Ni285   1.929       .  S
O269        C275   1.284       .  A
O270        C275   1.280       .  A
C271       C1067   1.479       .  S
O272        C274   1.269       .  A
O273       Ni284   1.934       .  S
C274        O280   1.273       .  A
C274        C527   1.468       .  S
C275        C549   1.491       .  S
H276        O277   0.965       .  S
O277       Ni285   1.919       .  S
O277       Ni279   1.888       .  S
O277       Ni284   1.902       .  S
O278       Ni279   1.922       .  S
Ni279       O283   1.896       .  S
Ni279       O281   1.914       .  S
O280       Ni285   1.936       .  S
C282        O283   1.266       .  A
C282        C747   1.482       .  S
O287       Ni293   1.926       .  S
O287        C308   1.271       .  A
O288       Ni311   1.892       .  S
O288        C297   1.263       .  A
O289       Ni293   1.908       .  S
O289       Ni311   1.890       .  S
O289       Ni305   1.914       .  S
O289        H312   0.966       .  S
C290        O307   1.281       .  A
C290        O299   1.279       .  A
C290        C561   1.491       .  S
O291       Ni310   1.950       .  S
O291        C297   1.275       .  A
O292       Ni310   1.896       .  S
O292        C294   1.269       .  A
Ni293       O296   1.929       .  S
Ni293       O298   1.919       .  S
C294        O304   1.275       .  A
C294        C769   1.470       .  S
O295       Ni311   1.908       .  S
O295        C301   1.276       .  A
O296        C301   1.279       .  A
C297        C517   1.481       .  S
O298        C300   1.269       .  A
O299       Ni310   1.922       .  S
C300        O306   1.266       .  A
C300       C1353   1.481       .  S
C301        C605   1.478       .  S
H302        O303   0.966       .  S
O303       Ni311   1.901       .  S
O303       Ni305   1.913       .  S
O303       Ni310   1.901       .  S
O304       Ni305   1.940       .  S
Ni305       O309   1.924       .  S
Ni305       O307   1.932       .  S
O306       Ni311   1.911       .  S
C308        O309   1.273       .  A
C308        C649   1.477       .  S
O313       Ni319   1.922       .  S
O313        C334   1.271       .  A
O314       Ni337   1.889       .  S
O314        C323   1.262       .  A
O315       Ni319   1.906       .  S
O315       Ni337   1.889       .  S
O315       Ni331   1.916       .  S
O315        H338   0.967       .  S
C316        O333   1.283       .  A
C316        O325   1.278       .  A
C316        C483   1.481       .  S
O317       Ni336   1.940       .  S
O317        C323   1.273       .  A
O318       Ni336   1.899       .  S
O318        C320   1.269       .  A
Ni319       O322   1.932       .  S
Ni319       O324   1.919       .  S
C320        O330   1.274       .  A
C320       C1463   1.471       .  S
O321       Ni337   1.905       .  S
O321        C327   1.275       .  A
O322        C327   1.280       .  A
C323        C461   1.468       .  S
O324        C326   1.268       .  A
O325       Ni336   1.913       .  S
C326        O332   1.266       .  A
C326        C627   1.481       .  S
C327        C923   1.479       .  S
H328        O329   0.966       .  S
O329       Ni337   1.896       .  S
O329       Ni331   1.903       .  S
O329       Ni336   1.896       .  S
O330       Ni331   1.937       .  S
Ni331       O335   1.929       .  S
Ni331       O333   1.928       .  S
O332       Ni337   1.911       .  S
C334        O335   1.274       .  A
C334        C857   1.477       .  S
O339       Ni345   1.928       .  S
O339        C360   1.271       .  A
O340       Ni363   1.916       .  S
O340        C349   1.270       .  A
O341       Ni345   1.897       .  S
O341       Ni363   1.900       .  S
O341       Ni357   1.903       .  S
O341        H364   0.966       .  S
C342        O359   1.278       .  A
C342        O351   1.280       .  A
C342        C505   1.485   1_554  S
O343       Ni362   1.929       .  S
O343        C349   1.272       .  A
O344       Ni362   1.915       .  S
O344        C346   1.268       .  A
Ni345       O348   1.910       .  S
Ni345       O350   1.901       .  S
C346        O356   1.266       .  A
C346        C583   1.480       .  S
O347       Ni363   1.930       .  S
O347        C353   1.281       .  A
O348        C353   1.276       .  A
C349        C539   1.470       .  S
O350        C352   1.269       .  A
O351       Ni362   1.935       .  S
C352        O358   1.273       .  A
C352        C439   1.476       .  S
C353        C495   1.480       .  S
H354        O355   0.966       .  S
O355       Ni363   1.912       .  S
O355       Ni357   1.895       .  S
O355       Ni362   1.907       .  S
O356       Ni357   1.912       .  S
Ni357       O361   1.895       .  S
Ni357       O359   1.912       .  S
O358       Ni363   1.936       .  S
C360        O361   1.264       .  A
C360       C1441   1.469   1_554  S
O365       Ni371   1.929       .  S
O365        C386   1.273       .  A
O366       Ni389   1.876       .  S
O366        C375   1.261       .  A
O367       Ni371   1.908       .  S
O367       Ni389   1.891       .  S
O367       Ni383   1.911       .  S
O367        H390   0.966       .  S
C368        O385   1.278       .  A
C368        O377   1.279       .  A
C368        C417   1.479       .  S
O369       Ni388   1.949       .  S
O369        C375   1.275       .  A
O370       Ni388   1.901       .  S
O370        C372   1.268       .  A
Ni371       O374   1.929       .  S
Ni371       O376   1.920       .  S
C372        O382   1.273       .  A
C372        C703   1.466       .  S
O373       Ni389   1.911       .  S
O373        C379   1.274       .  A
O374        C379   1.279       .  A
C375       C1111   1.478       .  S
O376        C378   1.270       .  A
O377       Ni388   1.928       .  S
C378        O384   1.267       .  A
C378        C847   1.481       .  S
C379        C803   1.479       .  S
H380        O381   0.966       .  S
O381       Ni389   1.893       .  S
O381       Ni383   1.907       .  S
O381       Ni388   1.905       .  S
O382       Ni383   1.936       .  S
Ni383       O387   1.921       .  S
Ni383       O385   1.908       .  S
O384       Ni389   1.914       .  S
C386        O387   1.271       .  A
C386        C737   1.477       .  S
O391       Ni397   1.944       .  S
O391        C412   1.273       .  A
O392       Ni415   1.922       .  S
O392        C401   1.270       .  A
O393       Ni397   1.904       .  S
O393       Ni415   1.909       .  S
O393       Ni409   1.897       .  S
O393        H416   0.966       .  S
C394        O411   1.275       .  A
C394        O403   1.279       .  A
C394        C473   1.479       .  S
O395       Ni414   1.925       .  S
O395        C401   1.272       .  A
O396       Ni414   1.914       .  S
O396        C398   1.268       .  A
Ni397       O400   1.915       .  S
Ni397       O402   1.898       .  S
C398        O408   1.270       .  A
C398        C913   1.486       .  S
O399       Ni415   1.919       .  S
O399        C405   1.278       .  A
O400        C405   1.277       .  A
C401        C451   1.477       .  S
O402        C404   1.268       .  A
O403       Ni414   1.925       .  S
C404        O410   1.272       .  A
C404       C1133   1.466       .  S
C405        C429   1.477       .  S
H406        O407   0.967       .  S
O407       Ni415   1.909       .  S
O407       Ni409   1.894       .  S
O407       Ni414   1.904       .  S
O408       Ni409   1.924       .  S
Ni409       O413   1.891       .  S
Ni409       O411   1.907       .  S
O410       Ni415   1.933       .  S
C412        O413   1.264       .  A
C412        C693   1.476       .  S
C417        C418   1.403       .  A
C417        C422   1.400       .  A
C418        C419   1.394   1_455  A
C418        H431   1.083       .  S
C419        C420   1.412       .  A
C419        H432   1.077       .  S
C420        C426   1.427       .  A
C420        C421   1.423   1_655  A
C421        C423   1.398   1_554  A
C421        C422   1.402       .  A
C422        H433   1.084       .  S
C423        C424   1.386       .  A
C423        H434   1.084       .  S
C424        C425   1.399   1_455  A
C424        H435   1.084       .  S
C425        C426   1.420   1_556  A
C425        C430   1.398       .  A
C426        C427   1.417       .  A
C427        C428   1.398   1_554  A
C427        H436   1.077       .  S
C428        C429   1.400       .  A
C428        H437   1.083       .  S
C429        C430   1.402       .  A
C430        H438   1.085       .  S
C439        C440   1.400       .  A
C439        C444   1.398       .  A
C440        C441   1.405       .  A
C440        H453   1.083       .  S
C441        C442   1.419       .  A
C441        H454   1.078       .  S
C442        C448   1.434   1_554  A
C442        C443   1.423       .  A
C443        C445   1.397       .  A
C443        C444   1.398       .  A
C444        H455   1.085       .  S
C445        C446   1.384       .  A
C445        H456   1.084       .  S
C446        C447   1.397   1_554  A
C446        H457   1.084       .  S
C447        C448   1.423       .  A
C447        C452   1.398       .  A
C448        C449   1.418       .  A
C449        C450   1.405       .  A
C449        H458   1.078       .  S
C450        C451   1.401       .  A
C450        H459   1.083       .  S
C451        C452   1.397       .  A
C452        H460   1.085       .  S
C461        C462   1.399       .  A
C461        C466   1.398       .  A
C462        C463   1.392       .  A
C462        H475   1.084       .  S
C463        C464   1.413       .  A
C463        H476   1.077       .  S
C464        C470   1.425       .  A
C464        C465   1.423       .  A
C465        C467   1.399       .  A
C465        C466   1.404       .  A
C466        H477   1.085       .  S
C467        C468   1.390       .  A
C467        H478   1.084       .  S
C468        C469   1.400       .  A
C468        H479   1.084       .  S
C469        C470   1.421       .  A
C469        C474   1.402       .  A
C470        C471   1.414       .  A
C471        C472   1.393       .  A
C471        H480   1.077       .  S
C472        C473   1.402       .  A
C472        H481   1.083       .  S
C473        C474   1.402       .  A
C474        H482   1.084       .  S
C483        C484   1.404       .  A
C483        C488   1.400       .  A
C484        C485   1.392       .  A
C484        H497   1.083       .  S
C485        C486   1.411       .  A
C485        H498   1.077       .  S
C486        C492   1.428       .  A
C486        C487   1.424       .  A
C487        C489   1.398       .  A
C487        C488   1.405       .  A
C488        H499   1.084       .  S
C489        C490   1.388       .  A
C489        H500   1.084       .  S
C490        C491   1.400       .  A
C490        H501   1.084       .  S
C491        C492   1.420       .  A
C491        C496   1.400       .  A
C492        C493   1.417       .  A
C493        C494   1.397       .  A
C493        H502   1.077       .  S
C494        C495   1.399       .  A
C494        H503   1.083       .  S
C495        C496   1.404       .  A
C496        H504   1.084       .  S
C505        C506   1.403       .  A
C505        C510   1.402       .  A
C506        C507   1.401       .  A
C506        H519   1.083   1_556  S
C507        C508   1.415       .  A
C507        H520   1.078       .  S
C508        C514   1.433       .  A
C508        C509   1.423       .  A
C509        C511   1.398       .  A
C509        C510   1.403       .  A
C510        H521   1.085       .  S
C511        C512   1.387       .  A
C511        H522   1.084       .  S
C512        C513   1.398       .  A
C512        H523   1.084       .  S
C513        C514   1.422       .  A
C513        C518   1.401       .  A
C514        C515   1.418       .  A
C515        C516   1.403       .  A
C515        H524   1.078       .  S
C516        C517   1.401       .  A
C516        H525   1.083       .  S
C517        C518   1.401       .  A
C518        H526   1.085       .  S
C527        C528   1.395       .  A
C527        C532   1.402       .  A
C528        C529   1.391       .  A
C528        H541   1.084       .  S
C529        C530   1.413       .  A
C529        H542   1.076       .  S
C530        C536   1.429       .  A
C530        C531   1.424       .  A
C531        C533   1.401       .  A
C531        C532   1.412       .  A
C532        H543   1.084       .  S
C533        C534   1.395       .  A
C533        H544   1.084       .  S
C534        C535   1.401       .  A
C534        H545   1.084       .  S
C535        C536   1.423       .  A
C535        C540   1.410       .  A
C536        C537   1.415       .  A
C537        C538   1.392       .  A
C537        H546   1.076       .  S
C538        C539   1.396       .  A
C538        H547   1.084       .  S
C539        C540   1.402       .  A
C540        H548   1.085       .  S
C549        C550   1.400       .  A
C549        C554   1.410       .  A
C550        C551   1.396       .  A
C550        H563   1.083       .  S
C551        C552   1.416       .  A
C551        H564   1.077       .  S
C552        C558   1.431       .  A
C552        C553   1.420       .  A
C553        C555   1.403       .  A
C553        C554   1.409       .  A
C554        H565   1.084       .  S
C555        C556   1.395       .  A
C555        H566   1.084       .  S
C556        C557   1.401       .  A
C556        H567   1.084       .  S
C557        C558   1.424       .  A
C557        C562   1.414       .  A
C558        C559   1.410       .  A
C559        C560   1.391       .  A
C559        H568   1.077       .  S
C560        C561   1.404       .  A
C560        H569   1.083       .  S
C561        C562   1.406       .  A
C562        H570   1.084       .  S
C571        C572   1.400       .  A
C571        C576   1.401       .  A
C572        C573   1.397       .  A
C572        H585   1.083       .  S
C573        C574   1.415       .  A
C573        H586   1.078       .  S
C574        C580   1.429       .  A
C574        C575   1.423       .  A
C575        C577   1.400       .  A
C575        C576   1.404       .  A
C576        H587   1.085       .  S
C577        C578   1.389       .  A
C577        H588   1.084       .  S
C578        C579   1.399       .  A
C578        H589   1.084       .  S
C579        C580   1.421       .  A
C579        C584   1.403       .  A
C580        C581   1.415       .  A
C581        C582   1.398       .  A
C581        H590   1.078       .  S
C582        C583   1.400       .  A
C582        H591   1.083       .  S
C583        C584   1.403       .  A
C584        H592   1.085       .  S
C593        C594   1.401       .  A
C593        C598   1.399       .  A
C594        C595   1.399       .  A
C594        H607   1.083       .  S
C595        C596   1.416       .  A
C595        H608   1.077       .  S
C596        C602   1.429       .  A
C596        C597   1.422       .  A
C597        C599   1.398       .  A
C597        C598   1.399       .  A
C598        H609   1.085       .  S
C599        C600   1.385       .  A
C599        H610   1.084       .  S
C600        C601   1.398       .  A
C600        H611   1.084       .  S
C601        C602   1.422       .  A
C601        C606   1.398       .  A
C602        C603   1.416       .  A
C603        C604   1.399       .  A
C603        H612   1.077       .  S
C604        C605   1.401       .  A
C604        H613   1.083       .  S
C605        C606   1.400       .  A
C606        H614   1.085       .  S
C615        C616   1.400       .  A
C615        C620   1.400       .  A
C616        C617   1.397       .  A
C616        H629   1.084       .  S
C617        C618   1.414       .  A
C617        H630   1.077       .  S
C618        C624   1.431   1_455  A
C618        C619   1.424       .  A
C619        C621   1.399   1_455  A
C619        C620   1.407       .  A
C620        H631   1.085       .  S
C621        C622   1.390       .  A
C621        H632   1.084       .  S
C622        C623   1.400       .  A
C622        H633   1.084       .  S
C623        C624   1.421       .  A
C623        C628   1.404       .  A
C624        C625   1.417       .  A
C625        C626   1.399       .  A
C625        H634   1.077   1_655  S
C626        C627   1.400       .  A
C626        H635   1.083       .  S
C627        C628   1.403       .  A
C628        H636   1.085       .  S
C637        C638   1.397       .  A
C637        C642   1.399       .  A
C638        C639   1.401       .  A
C638        H651   1.083       .  S
C639        C640   1.418       .  A
C639        H652   1.077       .  S
C640        C646   1.432       .  A
C640        C641   1.423       .  A
C641        C643   1.399       .  A
C641        C642   1.402       .  A
C642        H653   1.085       .  S
C643        C644   1.388       .  A
C643        H654   1.084       .  S
C644        C645   1.399       .  A
C644        H655   1.084       .  S
C645        C646   1.423       .  A
C645        C650   1.403       .  A
C646        C647   1.417       .  A
C647        C648   1.402       .  A
C647        H656   1.078       .  S
C648        C649   1.399       .  A
C648        H657   1.083       .  S
C649        C650   1.400       .  A
C650        H658   1.085       .  S
C659        C660   1.399       .  A
C659        C664   1.405       .  A
C660        C661   1.396       .  A
C660        H673   1.083       .  S
C661        C662   1.417       .  A
C661        H674   1.077       .  S
C662        C668   1.426       .  A
C662        C663   1.419       .  A
C663        C665   1.400       .  A
C663        C664   1.398       .  A
C664        H675   1.084       .  S
C665        C666   1.388       .  A
C665        H676   1.084       .  S
C666        C667   1.398       .  A
C666        H677   1.084       .  S
C667        C668   1.424       .  A
C667        C672   1.404       .  A
C668        C669   1.410       .  A
C669        C670   1.390       .  A
C669        H678   1.077       .  S
C670        C671   1.403       .  A
C670        H679   1.083       .  S
C671        C672   1.400       .  A
C672        H680   1.084       .  S
C681        C682   1.403       .  A
C681        C686   1.401       .  A
C682        C683   1.403       .  A
C682        H695   1.083       .  S
C683        C684   1.417       .  A
C683        H696   1.078       .  S
C684        C690   1.432       .  A
C684        C685   1.422       .  A
C685        C687   1.397       .  A
C685        C686   1.398       .  A
C686        H697   1.085       .  S
C687        C688   1.384       .  A
C687        H698   1.084       .  S
C688        C689   1.397       .  A
C688        H699   1.084       .  S
C689        C690   1.422       .  A
C689        C694   1.397       .  A
C690        C691   1.418       .  A
C691        C692   1.404   1_455  A
C691        H700   1.078       .  S
C692        C693   1.401       .  A
C692        H701   1.083       .  S
C693        C694   1.397   1_655  A
C694        H702   1.085       .  S
C703        C704   1.397       .  A
C703        C708   1.397       .  A
C704        C705   1.398       .  A
C704        H717   1.084       .  S
C705        C706   1.416       .  A
C705        H718   1.078       .  S
C706        C712   1.430       .  A
C706        C707   1.423       .  A
C707        C709   1.399       .  A
C707        C708   1.405       .  A
C708        H719   1.085       .  S
C709        C710   1.390       .  A
C709        H720   1.084       .  S
C710        C711   1.400       .  A
C710        H721   1.084       .  S
C711        C712   1.423       .  A
C711        C716   1.405       .  A
C712        C713   1.417       .  A
C713        C714   1.398       .  A
C713        H722   1.077       .  S
C714        C715   1.397       .  A
C714        H723   1.084       .  S
C715        C716   1.398       .  A
C716        H724   1.085       .  S
C725        C726   1.398   1_556  A
C725        C730   1.397       .  A
C726        C727   1.405       .  A
C726        H739   1.083       .  S
C727        C728   1.420       .  A
C727        H740   1.078       .  S
C728        C734   1.434       .  A
C728        C729   1.422   1_554  A
C729        C731   1.398       .  A
C729        C730   1.399       .  A
C730        H741   1.086       .  S
C731        C732   1.386   1_556  A
C731        H742   1.084       .  S
C732        C733   1.398       .  A
C732        H743   1.084       .  S
C733        C734   1.424       .  A
C733        C738   1.402       .  A
C734        C735   1.417       .  A
C735        C736   1.403       .  A
C735        H744   1.078       .  S
C736        C737   1.401       .  A
C736        H745   1.083       .  S
C737        C738   1.398       .  A
C738        H746   1.085       .  S
C747        C748   1.401       .  A
C747        C752   1.403       .  A
C748        C749   1.396       .  A
C748        H761   1.083       .  S
C749        C750   1.414       .  A
C749        H762   1.077       .  S
C750        C756   1.430       .  A
C750        C751   1.423       .  A
C751        C753   1.399       .  A
C751        C752   1.405       .  A
C752        H763   1.085       .  S
C753        C754   1.389       .  A
C753        H764   1.084       .  S
C754        C755   1.400       .  A
C754        H765   1.084       .  S
C755        C756   1.421       .  A
C755        C760   1.402       .  A
C756        C757   1.417       .  A
C757        C758   1.398       .  A
C757        H766   1.077       .  S
C758        C759   1.399       .  A
C758        H767   1.083       .  S
C759        C760   1.404       .  A
C760        H768   1.085       .  S
C769        C770   1.399       .  A
C769        C774   1.395       .  A
C770        C771   1.405       .  A
C770        H783   1.083       .  S
C771        C772   1.419       .  A
C771        H784   1.078       .  S
C772        C778   1.432       .  A
C772        C773   1.423       .  A
C773        C775   1.397       .  A
C773        C774   1.397       .  A
C774        H785   1.086       .  S
C775        C776   1.383       .  A
C775        H786   1.084       .  S
C776        C777   1.397       .  A
C776        H787   1.084       .  S
C777        C778   1.423       .  A
C777        C782   1.397       .  A
C778        C779   1.418       .  A
C779        C780   1.404       .  A
C779        H788   1.078       .  S
C780        C781   1.400       .  A
C780        H789   1.083       .  S
C781        C782   1.396       .  A
C782        H790   1.085       .  S
C791        C792   1.400       .  A
C791        C796   1.403       .  A
C792        C793   1.396       .  A
C792        H805   1.083       .  S
C793        C794   1.414       .  A
C793        H806   1.077       .  S
C794        C800   1.429       .  A
C794        C795   1.422       .  A
C795        C797   1.399       .  A
C795        C796   1.403       .  A
C796        H807   1.085       .  S
C797        C798   1.389       .  A
C797        H808   1.084       .  S
C798        C799   1.400       .  A
C798        H809   1.084       .  S
C799        C800   1.422       .  A
C799        C804   1.403       .  A
C800        C801   1.416       .  A
C801        C802   1.397       .  A
C801        H810   1.077       .  S
C802        C803   1.399       .  A
C802        H811   1.083       .  S
C803        C804   1.403       .  A
C804        H812   1.085       .  S
C813        C814   1.399       .  A
C813        C818   1.405       .  A
C814        C815   1.398       .  A
C814        H827   1.083       .  S
C815        C816   1.418       .  A
C815        H828   1.077       .  S
C816        C822   1.428       .  A
C816        C817   1.419       .  A
C817        C819   1.400       .  A
C817        C818   1.400       .  A
C818        H829   1.084       .  S
C819        C820   1.389       .  A
C819        H830   1.084       .  S
C820        C821   1.398       .  A
C820        H831   1.084       .  S
C821        C822   1.425       .  A
C821        C826   1.407       .  A
C822        C823   1.410       .  A
C823        C824   1.390       .  A
C823        H832   1.077       .  S
C824        C825   1.404       .  A
C824        H833   1.083       .  S
C825        C826   1.400       .  A
C826        H834   1.084       .  S
C835        C836   1.401       .  A
C835        C840   1.403       .  A
C836        C837   1.399       .  A
C836        H849   1.083       .  S
C837        C838   1.415       .  A
C837        H850   1.078       .  S
C838        C844   1.431   1_655  A
C838        C839   1.422       .  A
C839        C841   1.400   1_655  A
C839        C840   1.406       .  A
C840        H851   1.085       .  S
C841        C842   1.390       .  A
C841        H852   1.084       .  S
C842        C843   1.400       .  A
C842        H853   1.084       .  S
C843        C844   1.423       .  A
C843        C848   1.406       .  A
C844        C845   1.415   1_455  A
C845        C846   1.398   1_655  A
C845        H854   1.078       .  S
C846        C847   1.402       .  A
C846        H855   1.084       .  S
C847        C848   1.401       .  A
C848        H856   1.085       .  S
C857        C858   1.401       .  A
C857        C862   1.398       .  A
C858        C859   1.406       .  A
C858        H871   1.083       .  S
C859        C860   1.419       .  A
C859        H872   1.078       .  S
C860        C866   1.435       .  A
C860        C861   1.423       .  A
C861        C863   1.398       .  A
C861        C862   1.400       .  A
C862        H873   1.085       .  S
C863        C864   1.385       .  A
C863        H874   1.084       .  S
C864        C865   1.398       .  A
C864        H875   1.084       .  S
C865        C866   1.423       .  A
C865        C870   1.400   1_545  A
C866        C867   1.419   1_545  A
C867        C868   1.406       .  A
C867        H876   1.078       .  S
C868        C869   1.400       .  A
C868        H877   1.083       .  S
C869        C870   1.398       .  A
C870        H878   1.085       .  S
C879        C880   1.402       .  A
C879        C884   1.401       .  A
C880        C881   1.400       .  A
C880        H893   1.083       .  S
C881        C882   1.416       .  A
C881        H894   1.078       .  S
C882        C888   1.431       .  A
C882        C883   1.422       .  A
C883        C885   1.398       .  A
C883        C884   1.400       .  A
C884        H895   1.085       .  S
C885        C886   1.386       .  A
C885        H896   1.084       .  S
C886        C887   1.398       .  A
C886        H897   1.084       .  S
C887        C888   1.422       .  A
C887        C892   1.400   1_455  A
C888        C889   1.416       .  A
C889        C890   1.400   1_455  A
C889        H898   1.078       .  S
C890        C891   1.401       .  A
C890        H899   1.083       .  S
C891        C892   1.401       .  A
C892        H900   1.085       .  S
C901        C902   1.403       .  A
C901        C906   1.404       .  A
C902        C903   1.398       .  A
C902        H915   1.083       .  S
C903        C904   1.414       .  A
C903        H916   1.077       .  S
C904        C910   1.434   1_455  A
C904        C905   1.423   1_455  A
C905        C907   1.400       .  A
C905        C906   1.410   1_655  A
C906        H917   1.084   1_455  S
C907        C908   1.392       .  A
C907        H918   1.084       .  S
C908        C909   1.400       .  A
C908        H919   1.084       .  S
C909        C910   1.422       .  A
C909        C914   1.408       .  A
C910        C911   1.416       .  A
C911        C912   1.399       .  A
C911        H920   1.077   1_655  S
C912        C913   1.402       .  A
C912        H921   1.083       .  S
C913        C914   1.404       .  A
C914        H922   1.084       .  S
C923        C924   1.401       .  A
C923        C928   1.401       .  A
C924        C925   1.400       .  A
C924        H937   1.083       .  S
C925        C926   1.417       .  A
C925        H938   1.077       .  S
C926        C932   1.429       .  A
C926        C927   1.421       .  A
C927        C929   1.398       .  A
C927        C928   1.398       .  A
C928        H939   1.085       .  S
C929        C930   1.385       .  A
C929        H940   1.084       .  S
C930        C931   1.397       .  A
C930        H941   1.084       .  S
C931        C932   1.423       .  A
C931        C936   1.399       .  A
C932        C933   1.415       .  A
C933        C934   1.398       .  A
C933        H942   1.077       .  S
C934        C935   1.402       .  A
C934        H943   1.083   1_655  S
C935        C936   1.399       .  A
C936        H944   1.085       .  S
C945        C946   1.397   1_545  A
C945        C950   1.397       .  A
C946        C947   1.398       .  A
C946        H959   1.084       .  S
C947        C948   1.415       .  A
C947        H960   1.078       .  S
C948        C954   1.429       .  A
C948        C949   1.423       .  A
C949        C951   1.399       .  A
C949        C950   1.404   1_565  A
C950        H961   1.085       .  S
C951        C952   1.389       .  A
C951        H962   1.084   1_565  S
C952        C953   1.399       .  A
C952        H963   1.084       .  S
C953        C954   1.423       .  A
C953        C958   1.403       .  A
C954        C955   1.416       .  A
C955        C956   1.398       .  A
C955        H964   1.078       .  S
C956        C957   1.397       .  A
C956        H965   1.084       .  S
C957        C958   1.397       .  A
C958        H966   1.085       .  S
C967        C968   1.403   1_545  A
C967        C972   1.402       .  A
C968        C969   1.392   1_455  A
C968        H981   1.083   1_455  S
C969        C970   1.412   1_655  A
C969        H982   1.077       .  S
C970        C976   1.427   1_456  A
C970        C971   1.423   1_566  A
C971        C973   1.399       .  A
C971        C972   1.405   1_554  A
C972        H983   1.084       .  S
C973        C974   1.389   1_545  A
C973        H984   1.084       .  S
C974        C975   1.400   1_455  A
C974        H985   1.084   1_565  S
C975        C976   1.420       .  A
C975        C980   1.401       .  A
C976        C977   1.416       .  A
C977        C978   1.396       .  A
C977        H986   1.077       .  S
C978        C979   1.399       .  A
C978        H987   1.083       .  S
C979        C980   1.403       .  A
C980        H988   1.084       .  S
C989        C990   1.400       .  A
C989        C994   1.403       .  A
C990        C991   1.389       .  A
C990       H1003   1.084       .  S
C991        C992   1.412       .  A
C991       H1004   1.077       .  S
C992        C998   1.425       .  A
C992        C993   1.422       .  A
C993        C995   1.401       .  A
C993        C994   1.408       .  A
C994       H1005   1.084       .  S
C995        C996   1.394       .  A
C995       H1006   1.084       .  S
C996        C997   1.401       .  A
C996       H1007   1.084       .  S
C997        C998   1.421       .  A
C997       C1002   1.408       .  A
C998        C999   1.411       .  A
C999       C1000   1.388       .  A
C999       H1008   1.077       .  S
C1000      C1001   1.401       .  A
C1000      H1009   1.083       .  S
C1001      C1002   1.404       .  A
C1002      H1010   1.084       .  S
C1011      C1012   1.399       .  A
C1011      C1016   1.397       .  A
C1012      C1013   1.405       .  A
C1012      H1025   1.083       .  S
C1013      C1014   1.420       .  A
C1013      H1026   1.078       .  S
C1014      C1020   1.432       .  A
C1014      C1015   1.422       .  A
C1015      C1017   1.398       .  A
C1015      C1016   1.397       .  A
C1016      H1027   1.086       .  S
C1017      C1018   1.385       .  A
C1017      H1028   1.084       .  S
C1018      C1019   1.397       .  A
C1018      H1029   1.084       .  S
C1019      C1020   1.424       .  A
C1019      C1024   1.400   1_554  A
C1020      C1021   1.416   1_554  A
C1021      C1022   1.402       .  A
C1021      H1030   1.078       .  S
C1022      C1023   1.401       .  A
C1022      H1031   1.083       .  S
C1023      C1024   1.396       .  A
C1024      H1032   1.085       .  S
C1033      C1034   1.400       .  A
C1033      C1038   1.401       .  A
C1034      C1035   1.398       .  A
C1034      H1047   1.083       .  S
C1035      C1036   1.415       .  A
C1035      H1048   1.077       .  S
C1036      C1042   1.431   1_655  A
C1036      C1037   1.423       .  A
C1037      C1039   1.400   1_655  A
C1037      C1038   1.405       .  A
C1038      H1049   1.085       .  S
C1039      C1040   1.389       .  A
C1039      H1050   1.084       .  S
C1040      C1041   1.399       .  A
C1040      H1051   1.084       .  S
C1041      C1042   1.421       .  A
C1041      C1046   1.403       .  A
C1042      C1043   1.416       .  A
C1043      C1044   1.399       .  A
C1043      H1052   1.078   1_455  S
C1044      C1045   1.401       .  A
C1044      H1053   1.083       .  S
C1045      C1046   1.402       .  A
C1046      H1054   1.085       .  S
C1055      C1056   1.399       .  A
C1055      C1060   1.399       .  A
C1056      C1057   1.407       .  A
C1056      H1069   1.083       .  S
C1057      C1058   1.420       .  A
C1057      H1070   1.078       .  S
C1058      C1064   1.435       .  A
C1058      C1059   1.422       .  A
C1059      C1061   1.398       .  A
C1059      C1060   1.399       .  A
C1060      H1071   1.086       .  S
C1061      C1062   1.385       .  A
C1061      H1072   1.084       .  S
C1062      C1063   1.397       .  A
C1062      H1073   1.084       .  S
C1063      C1064   1.423       .  A
C1063      C1068   1.401       .  A
C1064      C1065   1.418       .  A
C1065      C1066   1.405       .  A
C1065      H1074   1.078       .  S
C1066      C1067   1.401       .  A
C1066      H1075   1.083       .  S
C1067      C1068   1.399       .  A
C1068      H1076   1.085       .  S
C1077      C1078   1.398       .  A
C1077      C1082   1.399       .  A
C1078      C1079   1.397       .  A
C1078      H1091   1.083       .  S
C1079      C1080   1.416       .  A
C1079      H1092   1.077       .  S
C1080      C1086   1.427       .  A
C1080      C1081   1.422       .  A
C1081      C1083   1.398       .  A
C1081      C1082   1.398       .  A
C1082      H1093   1.085       .  S
C1083      C1084   1.386       .  A
C1083      H1094   1.084       .  S
C1084      C1085   1.398       .  A
C1084      H1095   1.084       .  S
C1085      C1086   1.422       .  A
C1085      C1090   1.399       .  A
C1086      C1087   1.414       .  A
C1087      C1088   1.395       .  A
C1087      H1096   1.077       .  S
C1088      C1089   1.401       .  A
C1088      H1097   1.083       .  S
C1089      C1090   1.400       .  A
C1090      H1098   1.085       .  S
C1099      C1100   1.399       .  A
C1099      C1104   1.402       .  A
C1100      C1101   1.388       .  A
C1100      H1113   1.084       .  S
C1101      C1102   1.413       .  A
C1101      H1114   1.077       .  S
C1102      C1108   1.424       .  A
C1102      C1103   1.422       .  A
C1103      C1105   1.401       .  A
C1103      C1104   1.407       .  A
C1104      H1115   1.084       .  S
C1105      C1106   1.393       .  A
C1105      H1116   1.084       .  S
C1106      C1107   1.400       .  A
C1106      H1117   1.084       .  S
C1107      C1108   1.422       .  A
C1107      C1112   1.408       .  A
C1108      C1109   1.411       .  A
C1109      C1110   1.387   1_655  A
C1109      H1118   1.077       .  S
C1110      C1111   1.402       .  A
C1110      H1119   1.083       .  S
C1111      C1112   1.403   1_455  A
C1112      H1120   1.084       .  S
C1121      C1122   1.397       .  A
C1121      C1126   1.400       .  A
C1122      C1123   1.392       .  A
C1122      H1135   1.084       .  S
C1123      C1124   1.414       .  A
C1123      H1136   1.077       .  S
C1124      C1130   1.427       .  A
C1124      C1125   1.423       .  A
C1125      C1127   1.400       .  A
C1125      C1126   1.408       .  A
C1126      H1137   1.085       .  S
C1127      C1128   1.393       .  A
C1127      H1138   1.084       .  S
C1128      C1129   1.400       .  A
C1128      H1139   1.084       .  S
C1129      C1130   1.424       .  A
C1129      C1134   1.409       .  A
C1130      C1131   1.414       .  A
C1131      C1132   1.391       .  A
C1131      H1140   1.077       .  S
C1132      C1133   1.396       .  A
C1132      H1141   1.084       .  S
C1133      C1134   1.399       .  A
C1134      H1142   1.084       .  S
C1143      C1144   1.401       .  A
C1143      C1148   1.403       .  A
C1144      C1145   1.398       .  A
C1144      H1157   1.083       .  S
C1145      C1146   1.415       .  A
C1145      H1158   1.077       .  S
C1146      C1152   1.432       .  A
C1146      C1147   1.423       .  A
C1147      C1149   1.400       .  A
C1147      C1148   1.409       .  A
C1148      H1159   1.085       .  S
C1149      C1150   1.391       .  A
C1149      H1160   1.084       .  S
C1150      C1151   1.400       .  A
C1150      H1161   1.084       .  S
C1151      C1152   1.422       .  A
C1151      C1156   1.406       .  A
C1152      C1153   1.416       .  A
C1153      C1154   1.399       .  A
C1153      H1162   1.077       .  S
C1154      C1155   1.401       .  A
C1154      H1163   1.083       .  S
C1155      C1156   1.404       .  A
C1156      H1164   1.085       .  S
C1165      C1166   1.402       .  A
C1165      C1170   1.405       .  A
C1166      C1167   1.391       .  A
C1166      H1179   1.084       .  S
C1167      C1168   1.412       .  A
C1167      H1180   1.076       .  S
C1168      C1174   1.429       .  A
C1168      C1169   1.423       .  A
C1169      C1171   1.401       .  A
C1169      C1170   1.411       .  A
C1170      H1181   1.084       .  S
C1171      C1172   1.394       .  A
C1171      H1182   1.084       .  S
C1172      C1173   1.401       .  A
C1172      H1183   1.084       .  S
C1173      C1174   1.422       .  A
C1173      C1178   1.410       .  A
C1174      C1175   1.413       .  A
C1175      C1176   1.392       .  A
C1175      H1184   1.076       .  S
C1176      C1177   1.401       .  A
C1176      H1185   1.083       .  S
C1177      C1178   1.405       .  A
C1178      H1186   1.084       .  S
C1187      C1188   1.396       .  A
C1187      C1192   1.401   1_556  A
C1188      C1189   1.393       .  A
C1188      H1201   1.084       .  S
C1189      C1190   1.414   1_556  A
C1189      H1202   1.077       .  S
C1190      C1196   1.431       .  A
C1190      C1191   1.424       .  A
C1191      C1193   1.401       .  A
C1191      C1192   1.412       .  A
C1192      H1203   1.084       .  S
C1193      C1194   1.394       .  A
C1193      H1204   1.084       .  S
C1194      C1195   1.401       .  A
C1194      H1205   1.084       .  S
C1195      C1196   1.423       .  A
C1195      C1200   1.410       .  A
C1196      C1197   1.415       .  A
C1197      C1198   1.395       .  A
C1197      H1206   1.077       .  S
C1198      C1199   1.396       .  A
C1198      H1207   1.084       .  S
C1199      C1200   1.402       .  A
C1200      H1208   1.085       .  S
C1209      C1210   1.400       .  A
C1209      C1214   1.403       .  A
C1210      C1211   1.392       .  A
C1210      H1223   1.083       .  S
C1211      C1212   1.415       .  A
C1211      H1224   1.077       .  S
C1212      C1218   1.424       .  A
C1212      C1213   1.420       .  A
C1213      C1215   1.400       .  A
C1213      C1214   1.400       .  A
C1214      H1225   1.084       .  S
C1215      C1216   1.389       .  A
C1215      H1226   1.084       .  S
C1216      C1217   1.399       .  A
C1216      H1227   1.084       .  S
C1217      C1218   1.423       .  A
C1217      C1222   1.404       .  A
C1218      C1219   1.411       .  A
C1219      C1220   1.389       .  A
C1219      H1228   1.077       .  S
C1220      C1221   1.402       .  A
C1220      H1229   1.083       .  S
C1221      C1222   1.400       .  A
C1222      H1230   1.084       .  S
C1231      C1232   1.401       .  A
C1231      C1236   1.404       .  A
C1232      C1233   1.397       .  A
C1232      H1245   1.083       .  S
C1233      C1234   1.415       .  A
C1233      H1246   1.077       .  S
C1234      C1240   1.431       .  A
C1234      C1235   1.422       .  A
C1235      C1237   1.400       .  A
C1235      C1236   1.406       .  A
C1236      H1247   1.085       .  S
C1237      C1238   1.391       .  A
C1237      H1248   1.084       .  S
C1238      C1239   1.400       .  A
C1238      H1249   1.084       .  S
C1239      C1240   1.423       .  A
C1239      C1244   1.406       .  A
C1240      C1241   1.415       .  A
C1241      C1242   1.397       .  A
C1241      H1250   1.077       .  S
C1242      C1243   1.400       .  A
C1242      H1251   1.083       .  S
C1243      C1244   1.403       .  A
C1244      H1252   1.085       .  S
C1253      C1254   1.399       .  A
C1253      C1258   1.397       .  A
C1254      C1255   1.405       .  A
C1254      H1267   1.083       .  S
C1255      C1256   1.419   1_565  A
C1255      H1268   1.078       .  S
C1256      C1262   1.434       .  A
C1256      C1257   1.423       .  A
C1257      C1259   1.398       .  A
C1257      C1258   1.399   1_545  A
C1258      H1269   1.086       .  S
C1259      C1260   1.386       .  A
C1259      H1270   1.084       .  S
C1260      C1261   1.398       .  A
C1260      H1271   1.084       .  S
C1261      C1262   1.423       .  A
C1261      C1266   1.401       .  A
C1262      C1263   1.418       .  A
C1263      C1264   1.404       .  A
C1263      H1272   1.078       .  S
C1264      C1265   1.400       .  A
C1264      H1273   1.083       .  S
C1265      C1266   1.398       .  A
C1266      H1274   1.085       .  S
C1275      C1276   1.400       .  A
C1275      C1280   1.398       .  A
C1276      C1277   1.397       .  A
C1276      H1289   1.083       .  S
C1277      C1278   1.415       .  A
C1277      H1290   1.078       .  S
C1278      C1284   1.427       .  A
C1278      C1279   1.423       .  A
C1279      C1281   1.397       .  A
C1279      C1280   1.397       .  A
C1280      H1291   1.085       .  S
C1281      C1282   1.384       .  A
C1281      H1292   1.084       .  S
C1282      C1283   1.398       .  A
C1282      H1293   1.084       .  S
C1283      C1284   1.420       .  A
C1283      C1288   1.394       .  A
C1284      C1285   1.417       .  A
C1285      C1286   1.399       .  A
C1285      H1294   1.078       .  S
C1286      C1287   1.401       .  A
C1286      H1295   1.083       .  S
C1287      C1288   1.401       .  A
C1288      H1296   1.085       .  S
C1297      C1298   1.400       .  A
C1297      C1302   1.401       .  A
C1298      C1299   1.388       .  A
C1298      H1311   1.084       .  S
C1299      C1300   1.413       .  A
C1299      H1312   1.076       .  S
C1300      C1306   1.424       .  A
C1300      C1301   1.422       .  A
C1301      C1303   1.399       .  A
C1301      C1302   1.404       .  A
C1302      H1313   1.084       .  S
C1303      C1304   1.390       .  A
C1303      H1314   1.084       .  S
C1304      C1305   1.399       .  A
C1304      H1315   1.084       .  S
C1305      C1306   1.423       .  A
C1305      C1310   1.404       .  A
C1306      C1307   1.413       .  A
C1307      C1308   1.388       .  A
C1307      H1316   1.076       .  S
C1308      C1309   1.399       .  A
C1308      H1317   1.084       .  S
C1309      C1310   1.399       .  A
C1310      H1318   1.084       .  S
C1319      C1320   1.400       .  A
C1319      C1324   1.396       .  A
C1320      C1321   1.406       .  A
C1320      H1333   1.083       .  S
C1321      C1322   1.419       .  A
C1321      H1334   1.078       .  S
C1322      C1328   1.435       .  A
C1322      C1323   1.423       .  A
C1323      C1325   1.397       .  A
C1323      C1324   1.399       .  A
C1324      H1335   1.086       .  S
C1325      C1326   1.385       .  A
C1325      H1336   1.084       .  S
C1326      C1327   1.397       .  A
C1326      H1337   1.084       .  S
C1327      C1328   1.423       .  A
C1327      C1332   1.400       .  A
C1328      C1329   1.418       .  A
C1329      C1330   1.406       .  A
C1329      H1338   1.078       .  S
C1330      C1331   1.401       .  A
C1330      H1339   1.083       .  S
C1331      C1332   1.397       .  A
C1332      H1340   1.085       .  S
C1341      C1342   1.400       .  A
C1341      C1346   1.404       .  A
C1342      C1343   1.397       .  A
C1342      H1355   1.083       .  S
C1343      C1344   1.415       .  A
C1343      H1356   1.077       .  S
C1344      C1350   1.430       .  A
C1344      C1345   1.421       .  A
C1345      C1347   1.400       .  A
C1345      C1346   1.406       .  A
C1346      H1357   1.085       .  S
C1347      C1348   1.391       .  A
C1347      H1358   1.084       .  S
C1348      C1349   1.400       .  A
C1348      H1359   1.084       .  S
C1349      C1350   1.423       .  A
C1349      C1354   1.408       .  A
C1350      C1351   1.414       .  A
C1351      C1352   1.395       .  A
C1351      H1360   1.077       .  S
C1352      C1353   1.401       .  A
C1352      H1361   1.084       .  S
C1353      C1354   1.402       .  A
C1354      H1362   1.084       .  S
C1363      C1364   1.401       .  A
C1363      C1368   1.402       .  A
C1364      C1365   1.390       .  A
C1364      H1377   1.084       .  S
C1365      C1366   1.413       .  A
C1365      H1378   1.077       .  S
C1366      C1372   1.424       .  A
C1366      C1367   1.421       .  A
C1367      C1369   1.400       .  A
C1367      C1368   1.403       .  A
C1368      H1379   1.084       .  S
C1369      C1370   1.390       .  A
C1369      H1380   1.084       .  S
C1370      C1371   1.399       .  A
C1370      H1381   1.084       .  S
C1371      C1372   1.423       .  A
C1371      C1376   1.405       .  A
C1372      C1373   1.411       .  A
C1373      C1374   1.387       .  A
C1373      H1382   1.076       .  S
C1374      C1375   1.400       .  A
C1374      H1383   1.084       .  S
C1375      C1376   1.400       .  A
C1376      H1384   1.084       .  S
C1385      C1386   1.397       .  A
C1385      C1390   1.402       .  A
C1386      C1387   1.393       .  A
C1386      H1399   1.084       .  S
C1387      C1388   1.415       .  A
C1387      H1400   1.077       .  S
C1388      C1394   1.429       .  A
C1388      C1389   1.423       .  A
C1389      C1391   1.401       .  A
C1389      C1390   1.410       .  A
C1390      H1401   1.085       .  S
C1391      C1392   1.394       .  A
C1391      H1402   1.084       .  S
C1392      C1393   1.401       .  A
C1392      H1403   1.084       .  S
C1393      C1394   1.424       .  A
C1393      C1398   1.411       .  A
C1394      C1395   1.414       .  A
C1395      C1396   1.392       .  A
C1395      H1404   1.077       .  S
C1396      C1397   1.396       .  A
C1396      H1405   1.084       .  S
C1397      C1398   1.400       .  A
C1398      H1406   1.084   1_565  S
C1407      C1408   1.397       .  A
C1407      C1412   1.405       .  A
C1408      C1409   1.391       .  A
C1408      H1421   1.083       .  S
C1409      C1410   1.416   1_545  A
C1409      H1422   1.076       .  S
C1410      C1416   1.423       .  A
C1410      C1411   1.419       .  A
C1411      C1413   1.401       .  A
C1411      C1412   1.400   1_565  A
C1412      H1423   1.084       .  S
C1413      C1414   1.390       .  A
C1413      H1424   1.084       .  S
C1414      C1415   1.399       .  A
C1414      H1425   1.084       .  S
C1415      C1416   1.424       .  A
C1415      C1420   1.406       .  A
C1416      C1417   1.408       .  A
C1417      C1418   1.385       .  A
C1417      H1426   1.076       .  S
C1418      C1419   1.403       .  A
C1418      H1427   1.083       .  S
C1419      C1420   1.401       .  A
C1420      H1428   1.084       .  S
C1429      C1430   1.399       .  A
C1429      C1434   1.403       .  A
C1430      C1431   1.394       .  A
C1430      H1443   1.083       .  S
C1431      C1432   1.415       .  A
C1431      H1444   1.077       .  S
C1432      C1438   1.425       .  A
C1432      C1433   1.421       .  A
C1433      C1435   1.399       .  A
C1433      C1434   1.398       .  A
C1434      H1445   1.085       .  S
C1435      C1436   1.387       .  A
C1435      H1446   1.084       .  S
C1436      C1437   1.399       .  A
C1436      H1447   1.084       .  S
C1437      C1438   1.422       .  A
C1437      C1442   1.400       .  A
C1438      C1439   1.415       .  A
C1439      C1440   1.393       .  A
C1439      H1448   1.077       .  S
C1440      C1441   1.397       .  A
C1440      H1449   1.083       .  S
C1441      C1442   1.400       .  A
C1442      H1450   1.085       .  S
C1451      C1452   1.400       .  A
C1451      C1456   1.398       .  A
C1452      C1453   1.403       .  A
C1452      H1465   1.083       .  S
C1453      C1454   1.418       .  A
C1453      H1466   1.078       .  S
C1454      C1460   1.432       .  A
C1454      C1455   1.423       .  A
C1455      C1457   1.398       .  A
C1455      C1456   1.399       .  A
C1456      H1467   1.085       .  S
C1457      C1458   1.385       .  A
C1457      H1468   1.084       .  S
C1458      C1459   1.398       .  A
C1458      H1469   1.084       .  S
C1459      C1460   1.423       .  A
C1459      C1464   1.399       .  A
C1460      C1461   1.419       .  A
C1461      C1462   1.403       .  A
C1461      H1470   1.078       .  S
C1462      C1463   1.398       .  A
C1462      H1471   1.083       .  S
C1463      C1464   1.397       .  A
C1464      H1472   1.086       .  S
