geometry optimzed in LAMMPS
_audit_creation_date              2020-12-01 
_audit_creation_method            'lammps2cif' 
_symmetry_space_group_name_H-M    'P1' 
_symmetry_Int_Tables_number       1 
_symmetry_cell_setting            triclinic 
loop_ 
_symmetry_equiv_pos_as_xyz 
  x,y,z 
_cell_length_a                    38.36471046 
_cell_length_b                    38.329988527696365 
_cell_length_c                    42.56582573188553 
_cell_angle_alpha                 90.25479225689277 
_cell_angle_beta                  90.09514467457585 
_cell_angle_gamma                 90.08970449140737 
loop_ 
_atom_site_label 
_atom_site_type_symbol 
_atom_site_fract_x 
_atom_site_fract_y 
_atom_site_fract_z 
_atom_site_charge 
O1          O  0.35390170  0.67993403  0.16857917    -0.85500
O2          O  0.36474918  0.74397622  0.14394443    -0.82600
C3          C  0.38032688  0.77118934  0.13552818     0.97900
O4          O  0.40979966  0.76920681  0.12204778    -0.82600
O5          O  0.45553417  0.74815702  0.16886242    -0.85200
C6          C  0.47018307  0.72857070  0.18853250     1.02500
O7          O  0.46920774  0.69592535  0.18508138    -0.78000
O8          O  0.40023057  0.68458319  0.19854423    -0.78200
C9          C  0.36757764  0.68258109  0.19571464     1.02400
O10         O  0.37650522  0.64955272  0.10929158    -0.85500
O11         O  0.38225078  0.71475351  0.08286988    -0.82600
C12         C  0.41053127  0.71490103  0.06735211     0.98000
O13         O  0.43938665  0.71589066  0.08151541    -0.82600
O14         O  0.48863148  0.69844124  0.12576289    -0.85200
C15         C  0.49057946  0.66520651  0.12652797     1.02400
O16         O  0.46444951  0.64752285  0.13476441    -0.78000
O17         O  0.39824474  0.62932926  0.15302588    -0.78200
C18         C  0.38310262  0.62423437  0.12702836     1.02400
Cr19       Cr  0.37275650  0.69725191  0.12690376     1.93700
Cr20       Cr  0.44611524  0.73062690  0.12547262     1.93200
Cr21       Cr  0.43179916  0.66667758  0.16581683     1.39100
O22         O  0.41690114  0.69817642  0.13905415    -1.23300
O23         O  0.40286544  0.67963366  0.79890484    -0.85500
O24         O  0.47099424  0.69310890  0.81259952    -0.82600
C25         C  0.47052326  0.72577016  0.80889003     0.97900
O26         O  0.45723123  0.74524066  0.82961015    -0.82600
O27         O  0.41175044  0.76585909  0.87686286    -0.85200
C28         C  0.38301017  0.76822390  0.86230201     1.02500
O29         O  0.36779851  0.74126833  0.85252217    -0.78000
O30         O  0.35590184  0.67685005  0.82794444    -0.78200
C31         C  0.37015576  0.67839544  0.80105156     1.02400
O32         O  0.40117825  0.62538036  0.84551134    -0.85500
O33         O  0.46703502  0.64498351  0.86365448    -0.82600
C34         C  0.49294380  0.66306377  0.87189663     0.98000
O35         O  0.49074473  0.69619771  0.87245055    -0.82600
O36         O  0.44066957  0.71260958  0.91675044    -0.85200
C37         C  0.41135604  0.71254872  0.93022710     1.02400
O38         O  0.38349092  0.71266613  0.91400631    -0.78000
O39         O  0.37688831  0.64733591  0.88768940    -0.78200
C40         C  0.38401083  0.62146495  0.87062249     1.02400
Cr41       Cr  0.43429546  0.66309759  0.83225201     1.93700
Cr42       Cr  0.44796378  0.72757822  0.87292470     1.93200
Cr43       Cr  0.37448417  0.69469661  0.86984857     1.39100
O44         O  0.41891870  0.69497190  0.85868985    -1.23300
O45         O  0.68110829  0.63144165  0.16771400    -0.85500
O46         O  0.74603865  0.62616653  0.14330642    -0.82600
C47         C  0.77437881  0.61275854  0.13486449     0.97900
O48         O  0.77467641  0.58291218  0.12194249    -0.82600
O49         O  0.75462761  0.53679228  0.16890417    -0.85200
C50         C  0.73522757  0.52113955  0.18812670     1.02500
O51         O  0.70335082  0.51703619  0.18191082    -0.78000
O52         O  0.68549315  0.58429763  0.19660180    -0.78200
C53         C  0.68217211  0.61691490  0.19446791     1.02400
O54         O  0.65224673  0.60954728  0.10802197    -0.85500
O55         O  0.71830787  0.60682929  0.08205737    -0.82600
C56         C  0.72234493  0.57875685  0.06645662     0.98000
O57         O  0.72571339  0.54991998  0.08029719    -0.82600
O58         O  0.70998279  0.49917979  0.12340577    -0.85200
C59         C  0.67703509  0.49513610  0.12127289     1.02400
O60         O  0.65708059  0.51963947  0.12943554    -0.78000
O61         O  0.63245384  0.58357696  0.14987321    -0.78200
C62         C  0.62707220  0.60164111  0.12559639     1.02400
Cr63       Cr  0.69989361  0.61495885  0.12593216     1.93700
Cr64       Cr  0.73869890  0.54414655  0.12465333     1.93200
Cr65       Cr  0.67191874  0.55249033  0.16239134     1.39100
O66         O  0.70341229  0.57068639  0.13721442    -1.23300
O67         O  0.69082505  0.58677226  0.79888508    -0.85500
O68         O  0.70753431  0.51889687  0.81213011    -0.82600
C69         C  0.74010336  0.52128472  0.80856170     0.97900
O70         O  0.75842097  0.53658381  0.82898586    -0.82600
O71         O  0.77595162  0.58256713  0.87674162    -0.85200
C72         C  0.77690750  0.61176367  0.86295997     1.02500
O73         O  0.74921987  0.62588780  0.85363552    -0.78000
O74         O  0.68409819  0.63271158  0.82917608    -0.78200
C75         C  0.68628608  0.61912719  0.80205892     1.02400
O76         O  0.63597994  0.58512786  0.84417913    -0.85500
O77         O  0.65855155  0.52031462  0.86266347    -0.82600
C78         C  0.67802505  0.49589781  0.87175372     0.98000
O79         O  0.71098502  0.49983824  0.87140621    -0.82600
O80         O  0.72462939  0.55010873  0.91609067    -0.85200
C81         C  0.72255132  0.57920579  0.92994957     1.02400
O82         O  0.72062156  0.60722494  0.91428532    -0.78000
O83         O  0.65474281  0.60963191  0.88750337    -0.78200
C84         C  0.62993417  0.60181713  0.86927604     1.02400
Cr85       Cr  0.67546773  0.55406097  0.83155464     1.93700
Cr86       Cr  0.74000753  0.54424863  0.87227988     1.93200
Cr87       Cr  0.70262243  0.61543767  0.87043442     1.39100
O88         O  0.70589876  0.57128160  0.85846673    -1.23300
O89         O  0.64372132  0.30659893  0.16474488    -0.85500
O90         O  0.63189972  0.23911257  0.14545677    -0.82600
C91         C  0.61696898  0.21186967  0.13578853     0.97900
O92         O  0.58773452  0.21395326  0.12208606    -0.82600
O93         O  0.54364348  0.23892253  0.16934292    -0.85200
C94         C  0.53108110  0.26077119  0.18847358     1.02500
O95         O  0.52914604  0.29259565  0.18118783    -0.78000
O96         O  0.59645445  0.30885232  0.19370153    -0.78200
C97         C  0.62905101  0.31018703  0.19119003     1.02400
O98         O  0.62475586  0.33112334  0.10378936    -0.85500
O99         O  0.61552474  0.26345054  0.08235895    -0.82600
C100        C  0.58740057  0.26279058  0.06651479     0.98000
O101        O  0.55814147  0.26352557  0.08007393    -0.82600
O102        O  0.50835903  0.28303264  0.12362574    -0.85200
C103        C  0.50599132  0.31593037  0.12043531     1.02400
O104        O  0.53225240  0.33475946  0.12582247    -0.78000
O105        O  0.59780698  0.35704030  0.14275554    -0.78200
C106        C  0.61696275  0.35853872  0.11868727     1.02400
Cr107      Cr  0.62544575  0.28484412  0.12484163     1.93700
Cr108      Cr  0.55161457  0.25229157  0.12464778     1.93200
Cr109      Cr  0.56509467  0.32079510  0.15895709     1.39100
O110        O  0.58088348  0.28618233  0.13581459    -1.23300
O111        O  0.59765135  0.30647714  0.80201488    -0.85500
O112        O  0.52967846  0.28977158  0.81374253    -0.82600
C113        C  0.53133578  0.25747291  0.80804426     0.97900
O114        O  0.54620991  0.23729685  0.82715925    -0.82600
O115        O  0.59120597  0.21543489  0.87507173    -0.85200
C116        C  0.62111263  0.21502852  0.86240732     1.02500
O117        O  0.63475821  0.24297730  0.85327220    -0.78000
O118        O  0.64361466  0.30932392  0.83268526    -0.78200
C119        C  0.63011063  0.30951451  0.80548774     1.02400
O120        O  0.59651291  0.35792888  0.85101386    -0.85500
O121        O  0.53107641  0.33470262  0.86742484    -0.82600
C122        C  0.50573895  0.31512097  0.87398762     0.98000
O123        O  0.50923783  0.28211946  0.87184406    -0.82600
O124        O  0.55846610  0.26484368  0.91625143    -0.85200
C125        C  0.58729573  0.26524796  0.93050092     1.02400
O126        O  0.61567328  0.26772773  0.91532487    -0.78000
O127        O  0.62092963  0.33501434  0.89262159    -0.78200
C128        C  0.61405683  0.36123782  0.87601847     1.02400
Cr129      Cr  0.56495869  0.31983505  0.83552489     1.93700
Cr130      Cr  0.55333802  0.25239850  0.87167676     1.93200
Cr131      Cr  0.62527403  0.28844447  0.87270469     1.39100
O132        O  0.58123125  0.28705563  0.86035850    -1.23300
O133        O  0.31649780  0.35203776  0.16460272    -0.85500
O134        O  0.25056879  0.36132594  0.14337790    -0.82600
C135        C  0.22306005  0.37609072  0.13457015     0.97900
O136        O  0.22440144  0.40470399  0.11992588    -0.82600
O137        O  0.24777356  0.45163938  0.16521401    -0.85200
C138        C  0.26856193  0.46782453  0.18298918     1.02500
O139        O  0.30085206  0.46750875  0.17746241    -0.78000
O140        O  0.31482574  0.40012731  0.19276256    -0.78200
C141        C  0.31641749  0.36740399  0.19102949     1.02400
O142        O  0.34311067  0.36998876  0.10370972    -0.85500
O143        O  0.27557125  0.37562059  0.08055585    -0.82600
C144        C  0.27333221  0.40321977  0.06428676     0.98000
O145        O  0.27419154  0.43283700  0.07720778    -0.82600
O146        O  0.29331935  0.48415392  0.11904508    -0.85200
C147        C  0.32634648  0.48660515  0.11745842     1.02400
O148        O  0.34510536  0.46075331  0.12415523    -0.78000
O149        O  0.36627476  0.39620895  0.14446409    -0.78200
C150        C  0.36951719  0.37761020  0.12006809     1.02400
Cr151      Cr  0.29624018  0.36818557  0.12360282     1.93700
Cr152      Cr  0.26235597  0.44120043  0.12124271     1.93200
Cr153      Cr  0.32940110  0.42983854  0.15783575     1.39100
O154        O  0.29611745  0.41297244  0.13381921    -1.23300
O155        O  0.31577744  0.39877239  0.80158023    -0.85500
O156        O  0.30087817  0.46533057  0.81737882    -0.82600
C157        C  0.26892818  0.46450573  0.81037388     0.97900
O158        O  0.24771235  0.44828990  0.82751464    -0.82600
O159        O  0.22318265  0.40184517  0.87242672    -0.85200
C160        C  0.22186188  0.37285552  0.85812788     1.02500
O161        O  0.24945778  0.35836696  0.84915998    -0.78000
O162        O  0.31544165  0.34975324  0.82804712    -0.78200
C163        C  0.31631402  0.36602215  0.80215420     1.02400
O164        O  0.36599600  0.39423888  0.85057666    -0.85500
O165        O  0.34377808  0.45827246  0.87189195    -0.82600
C166        C  0.32495160  0.48432320  0.87774733     0.98000
O167        O  0.29195979  0.48174617  0.87497671    -0.82600
O168        O  0.27199350  0.43026493  0.91601531    -0.85200
C169        C  0.27190874  0.40067917  0.92885539     1.02400
O170        O  0.27447659  0.37293654  0.91252960    -0.78000
O171        O  0.34183970  0.36667175  0.88979717    -0.78200
C172        C  0.36861452  0.37490995  0.87436996     1.02400
Cr173      Cr  0.32922205  0.42777964  0.83721864     1.93700
Cr174      Cr  0.26113476  0.43844289  0.87185103     1.93200
Cr175      Cr  0.29514039  0.36539920  0.86937760     1.39100
O176        O  0.29529819  0.41033270  0.85992599    -1.23300
O177        O  0.67932684  0.35712378  0.33061915    -0.85500
O178        O  0.74530855  0.36539666  0.35257210    -0.82600
C179        C  0.77302577  0.37911812  0.36234198     0.97900
O180        O  0.77226854  0.40816865  0.37658980    -0.82600
O181        O  0.75149801  0.45399432  0.32979011    -0.85200
C182        C  0.73184220  0.46893296  0.31030348     1.02500
O183        O  0.69959444  0.47160569  0.31580353    -0.78000
O184        O  0.68228396  0.40419136  0.30156865    -0.78200
C185        C  0.67926365  0.37159610  0.30387750     1.02400
O186        O  0.65278940  0.37769095  0.39089797    -0.85500
O187        O  0.71969883  0.38220395  0.41509314    -0.82600
C188        C  0.72198928  0.41013405  0.43122060     0.98000
O189        O  0.72240091  0.43942510  0.41785296    -0.82600
O190        O  0.70615003  0.49002143  0.37466067    -0.85200
C191        C  0.67320503  0.49307792  0.37676703     1.02400
O192        O  0.65384248  0.46793809  0.36905155    -0.78000
O193        O  0.63044131  0.40369937  0.34983336    -0.78200
C194        C  0.62675933  0.38533551  0.37422382     1.02400
Cr195      Cr  0.69961977  0.37401863  0.37166487     1.93700
Cr196      Cr  0.73561605  0.44595497  0.37372889     1.93200
Cr197      Cr  0.66886883  0.43564899  0.33601082     1.39100
O198        O  0.70120080  0.41843960  0.36082447    -1.23300
O199        O  0.69501009  0.39661274  0.69821970    -0.85500
O200        O  0.71091413  0.46485044  0.68575656    -0.82600
C201        C  0.74349496  0.46327408  0.68963134     0.97900
O202        O  0.76249297  0.44946159  0.66893210    -0.82600
O203        O  0.78137289  0.40407957  0.62091234    -0.85200
C204        C  0.78278039  0.37478656  0.63461975     1.02500
O205        O  0.75534309  0.36028824  0.64401057    -0.78000
O206        O  0.68999494  0.35078290  0.66753081    -0.78200
C207        C  0.69057745  0.36426964  0.69477483     1.02400
O208        O  0.64084901  0.39776620  0.65182805    -0.85500
O209        O  0.66269955  0.46295125  0.63450238    -0.82600
C210        C  0.68120237  0.48863445  0.62679008     0.98000
O211        O  0.71430872  0.48569831  0.62674883    -0.82600
O212        O  0.72914603  0.43581813  0.58169121    -0.85200
C213        C  0.72796162  0.40683900  0.56754468     1.02400
O214        O  0.72712560  0.37854711  0.58295598    -0.78000
O215        O  0.66105627  0.37326175  0.60900842    -0.78200
C216        C  0.63581910  0.38047467  0.62684334     1.02400
Cr217      Cr  0.67970925  0.42937709  0.66550146     1.93700
Cr218      Cr  0.74438958  0.44167367  0.62551683     1.93200
Cr219      Cr  0.70884158  0.36918765  0.62661810     1.39100
O220        O  0.71085106  0.41337048  0.63887911    -1.23300
O221        O  0.64330597  0.67994829  0.33348224    -0.85500
O222        O  0.63085085  0.74657887  0.35332645    -0.82600
C223        C  0.61579623  0.77386664  0.36244280     0.97900
O224        O  0.58652982  0.77213681  0.37610494    -0.82600
O225        O  0.54359907  0.75062078  0.32724353    -0.85200
C226        C  0.53188482  0.73037933  0.30631159     1.02500
O227        O  0.53038910  0.69793944  0.31103103    -0.78000
O228        O  0.59881305  0.68346409  0.30137850    -0.78200
C229        C  0.63090527  0.67944224  0.30590703     1.02400
O230        O  0.61884014  0.65470327  0.39256680    -0.85500
O231        O  0.61164237  0.72184025  0.41508992    -0.82600
C232        C  0.58315256  0.72084849  0.43018544     0.98000
O233        O  0.55447622  0.72041940  0.41565112    -0.82600
O234        O  0.50717821  0.70341330  0.36945958    -0.85200
C235        C  0.50473209  0.67035995  0.37079135     1.02400
O236        O  0.53039122  0.65161220  0.36350770    -0.78000
O237        O  0.59679953  0.63136552  0.34976723    -0.78200
C238        C  0.61244481  0.62829386  0.37579816     1.02400
Cr239      Cr  0.62290245  0.70108663  0.37276834     1.93700
Cr240      Cr  0.54997331  0.73434695  0.37129462     1.93200
Cr241      Cr  0.56511885  0.66842630  0.33337372     1.39100
O242        O  0.57925579  0.70107394  0.35950463    -1.23300
O243        O  0.59836173  0.68271002  0.69622511    -0.85500
O244        O  0.52934562  0.69527476  0.68428508    -0.82600
C245        C  0.53022217  0.72768895  0.68939707     0.97900
O246        O  0.54433611  0.74770205  0.66969601    -0.82600
O247        O  0.58833182  0.76967744  0.62167550    -0.85200
C248        C  0.61813858  0.77101804  0.63445341     1.02500
O249        O  0.63342822  0.74357392  0.64252758    -0.78000
O250        O  0.64391876  0.67875597  0.66523921    -0.78200
C251        C  0.63074295  0.67954193  0.69250987     1.02400
O252        O  0.59897211  0.62855366  0.64977942    -0.85500
O253        O  0.53290680  0.64837320  0.63221283    -0.82600
C254        C  0.50742594  0.66696087  0.62405238     0.98000
O255        O  0.50950555  0.70008268  0.62563819    -0.82600
O256        O  0.55708898  0.71837437  0.58092305    -0.85200
C257        C  0.58573406  0.71747512  0.56646553     1.02400
O258        O  0.61431377  0.71592487  0.58147289    -0.78000
O259        O  0.62156223  0.64950317  0.60662085    -0.78200
C260        C  0.61606423  0.62411806  0.62470520     1.02400
Cr261      Cr  0.56601685  0.66609335  0.66357370     1.93700
Cr262      Cr  0.55195739  0.73158157  0.62541495     1.93200
Cr263      Cr  0.62483326  0.69727455  0.62467044     1.39100
O264        O  0.58094969  0.69816124  0.63738586    -1.23300
O265        O  0.28678238  0.64353599  0.32960609    -0.85500
O266        O  0.24058484  0.62637877  0.37745956    -0.82600
C267        C  0.21746006  0.61128469  0.36141630     0.97900
O268        O  0.22220292  0.58077576  0.35124816    -0.82600
O269        O  0.25860800  0.52622292  0.32499815    -0.85200
C270        C  0.27039362  0.53720244  0.29897617     1.02500
O271        O  0.29449839  0.55947118  0.29835519    -0.78000
O272        O  0.33345180  0.61565524  0.31384438    -0.78200
C273        C  0.31112346  0.63937730  0.30998776     1.02400
O274        O  0.34361321  0.63097780  0.37236784    -0.85500
O275        O  0.29729469  0.60613791  0.41572600    -0.82600
C276        C  0.27637337  0.58536120  0.42882296     0.98000
O277        O  0.25491401  0.56742359  0.41253458    -0.82600
O278        O  0.29345850  0.51484187  0.38473576    -0.85200
C279        C  0.31864868  0.50284520  0.36900477     1.02400
O280        O  0.32909834  0.51851125  0.34476291    -0.78000
O281        O  0.36303510  0.57802475  0.36514326    -0.78200
C282        C  0.36841514  0.60929216  0.37314154     1.02400
Cr283      Cr  0.29196430  0.62347112  0.37270390     1.93700
Cr284      Cr  0.25970988  0.54973760  0.36772288     1.93200
Cr285      Cr  0.32731148  0.56854972  0.33261685     1.39100
O286        O  0.29296542  0.58027726  0.35790813    -1.23300
O287        O  0.33697589  0.61340121  0.68054747    -0.85500
O288        O  0.29747458  0.55728510  0.69588976    -0.82600
C289        C  0.27416447  0.53417617  0.69474313     0.97900
O290        O  0.26307625  0.52282855  0.66844863    -0.82600
O291        O  0.22522146  0.57646202  0.64148017    -0.85200
C292        C  0.21992681  0.60695951  0.63150762     1.02500
O293        O  0.24347479  0.62332285  0.61720301    -0.78000
O294        O  0.28998814  0.64076852  0.66527171    -0.78200
C295        C  0.31451778  0.63687213  0.68481984     1.02400
O296        O  0.36618373  0.57517251  0.62949957    -0.85500
O297        O  0.33255842  0.51596869  0.65042744    -0.82600
C298        C  0.32385300  0.50026568  0.62556198     0.98000
O299        O  0.29912976  0.51195338  0.60899726    -0.82600
O300        O  0.25876165  0.56360519  0.58125464    -0.85200
C301        C  0.27887842  0.58280362  0.56506507     1.02400
O302        O  0.29987773  0.60366393  0.57827750    -0.78000
O303        O  0.34670867  0.62806001  0.62193416    -0.78200
C304        C  0.37146591  0.60626829  0.62118156     1.02400
Cr305      Cr  0.33056127  0.56614854  0.66193828     1.93700
Cr306      Cr  0.26396833  0.54614610  0.62578709     1.93200
Cr307      Cr  0.29497379  0.62063603  0.62178944     1.39100
O308        O  0.29635221  0.57743781  0.63626658    -1.23300
O309        O  0.35356089  0.31344241  0.33141496    -0.85500
O310        O  0.36230400  0.24820005  0.35405142    -0.82600
C311        C  0.37735902  0.22018282  0.36091604     0.97900
O312        O  0.40792572  0.22077044  0.37232301    -0.82600
O313        O  0.45219466  0.24480252  0.32502711    -0.85200
C314        C  0.46822422  0.26556280  0.30728634     1.02500
O315        O  0.46847630  0.29773481  0.31349569    -0.78000
O316        O  0.39996401  0.31098594  0.30113694    -0.78200
C317        C  0.36743233  0.31305523  0.30436317     1.02400
O318        O  0.37590079  0.34196416  0.39090385    -0.85500
O319        O  0.38317152  0.27555138  0.41520956    -0.82600
C320        C  0.41214496  0.27255674  0.42950268     0.98000
O321        O  0.44024906  0.27004370  0.41449345    -0.82600
O322        O  0.48792823  0.29011102  0.37081541    -0.85200
C323        C  0.49054629  0.32322338  0.37333151     1.02400
O324        O  0.46477884  0.34224271  0.36676439    -0.78000
O325        O  0.39904832  0.36373008  0.34848000    -0.78200
C326        C  0.38197849  0.36780454  0.37354931     1.02400
Cr327      Cr  0.37223996  0.29442521  0.37213720     1.93700
Cr328      Cr  0.44478690  0.25886338  0.36980691     1.93200
Cr329      Cr  0.43179328  0.32623560  0.33446941     1.39100
O330        O  0.41614314  0.29321941  0.35929997    -1.23300
O331        O  0.40196599  0.30693652  0.69504584    -0.85500
O332        O  0.47079974  0.29233621  0.68563814    -0.82600
C333        C  0.47020924  0.25967683  0.68912535     0.97900
O334        O  0.45779290  0.24021781  0.66786193    -0.82600
O335        O  0.41402593  0.22006089  0.61867657    -0.85200
C336        C  0.38446273  0.21811525  0.63183844     1.02500
O337        O  0.36932100  0.24533170  0.64115746    -0.78000
O338        O  0.35778546  0.31140020  0.66265625    -0.78200
C339        C  0.36980955  0.31038172  0.69021755     1.02400
O340        O  0.40504871  0.36088970  0.64818173    -0.85500
O341        O  0.47200357  0.33995946  0.63436161    -0.82600
C342        C  0.49761915  0.32112564  0.62686884     0.98000
O343        O  0.49432232  0.28807745  0.62636467    -0.82600
O344        O  0.44615625  0.27235693  0.57968658    -0.85200
C345        C  0.41719766  0.27286723  0.56549762     1.02400
O346        O  0.38894973  0.27249857  0.58077446    -0.78000
O347        O  0.38211784  0.33945830  0.60501967    -0.78200
C348        C  0.38853936  0.36525803  0.62268961     1.02400
Cr349      Cr  0.43631877  0.32268336  0.66366577     1.93700
Cr350      Cr  0.45092977  0.25764859  0.62403487     1.93200
Cr351      Cr  0.37809041  0.29183274  0.62325956     1.39100
O352        O  0.42189999  0.29097225  0.63658519    -1.23300
O353        O  0.86179357  0.17569977  0.66632540    -0.85500
O354        O  0.87185537  0.24204040  0.64509458    -0.82600
C355        C  0.88619639  0.26929096  0.63505185     0.97900
O356        O  0.91500077  0.26742689  0.62071829    -0.82600
O357        O  0.96164136  0.24346144  0.66656337    -0.85200
C358        C  0.97678192  0.22234548  0.68472241     1.02500
O359        O  0.97731532  0.19022074  0.67833797    -0.78000
O360        O  0.91017314  0.17546823  0.69391641    -0.78200
C361        C  0.87743082  0.17410417  0.69256901     1.02400
O362        O  0.87875804  0.14919011  0.60494054    -0.85500
O363        O  0.88544331  0.21634210  0.58193393    -0.82600
C364        C  0.91280169  0.21792369  0.56516888     0.98000
O365        O  0.94262485  0.21734703  0.57781886    -0.82600
O366        O  0.99418744  0.19833451  0.61993698    -0.85200
C367        C  0.99686406  0.16532312  0.61793547     1.02400
O368        O  0.97100688  0.14638306  0.62440290    -0.78000
O369        O  0.90621003  0.12514126  0.64441442    -0.78200
C370        C  0.88689341  0.12249790  0.62048524     1.02400
Cr371      Cr  0.87797932  0.19599085  0.62517682     1.93700
Cr372      Cr  0.95125833  0.22920305  0.62221785     1.93200
Cr373      Cr  0.93980778  0.16177954  0.65832632     1.39100
O374        O  0.92288981  0.19547664  0.63483731    -1.23300
O375        O  0.89045608  0.17968780  0.30060949    -0.85500
O376        O  0.95975486  0.19204587  0.31097003    -0.82600
C377        C  0.95887346  0.22399408  0.30423029     0.97900
O378        O  0.94709715  0.24569668  0.32393330    -0.82600
O379        O  0.90438478  0.27039009  0.37242338    -0.85200
C380        C  0.87424816  0.27219667  0.36040866     1.02500
O381        O  0.85807885  0.24496653  0.35263671    -0.78000
O382        O  0.84496413  0.17911334  0.33170653    -0.78200
C383        C  0.85788013  0.17960125  0.30427891     1.02400
O384        O  0.89084411  0.12851879  0.34921627    -0.85500
O385        O  0.95801884  0.14782304  0.36423162    -0.82600
C386        C  0.98391864  0.16671482  0.37115751     0.98000
O387        O  0.98180073  0.19972050  0.36868409    -0.82600
O388        O  0.93511832  0.22033775  0.41366829    -0.85200
C389        C  0.90683755  0.22067511  0.42873863     1.02400
O390        O  0.87784888  0.21948177  0.41427492    -0.78000
O391        O  0.86925366  0.15252151  0.39163507    -0.78200
C392        C  0.87587290  0.12579151  0.37544412     1.02400
Cr393      Cr  0.92358713  0.16449082  0.33321509     1.93700
Cr394      Cr  0.93984198  0.23165997  0.36883438     1.93200
Cr395      Cr  0.86598816  0.19908903  0.37168116     1.39100
O396        O  0.90977926  0.19832192  0.35832959    -1.23300
O397        O  0.14346072  0.80592496  0.66828787    -0.85500
O398        O  0.13358532  0.74099559  0.64410977    -0.82600
C399        C  0.11905584  0.71391280  0.63371808     0.97900
O400        O  0.09016011  0.71613996  0.61945315    -0.82600
O401        O  0.04526463  0.73568014  0.66755144    -0.85200
C402        C  0.03095963  0.75480318  0.68794418     1.02500
O403        O  0.02907824  0.78738568  0.68388670    -0.78000
O404        O  0.09656583  0.80334641  0.69758115    -0.78200
C405        C  0.12917428  0.80542384  0.69507906     1.02400
O406        O  0.12322064  0.83581119  0.60958104    -0.85500
O407        O  0.11672499  0.77021139  0.58277868    -0.82600
C408        C  0.08864583  0.76982850  0.56688288     0.98000
O409        O  0.05947329  0.76880704  0.58053674    -0.82600
O410        O  0.00947022  0.78337804  0.62508204    -0.85200
C411        C  0.00616880  0.81639506  0.62443536     1.02400
O412        O  0.03142248  0.83551630  0.63251986    -0.78000
O413        O  0.09697281  0.85728122  0.65106322    -0.78200
C414        C  0.11565343  0.86148175  0.62688309     1.02400
Cr415      Cr  0.12574047  0.78791834  0.62685957     1.93700
Cr416      Cr  0.05316215  0.75345542  0.62418175     1.93200
Cr417      Cr  0.06478069  0.81859781  0.66415327     1.39100
O418        O  0.08130185  0.78694249  0.63801306    -1.23300
O419        O  0.09673193  0.81010308  0.30084985    -0.85500
O420        O  0.02876641  0.79314552  0.31302594    -0.82600
C421        C  0.03069397  0.76071844  0.30814742     0.97900
O422        O  0.04569595  0.74135700  0.32778653    -0.82600
O423        O  0.09125525  0.72160025  0.37470023    -0.85200
C424        C  0.12041749  0.72099870  0.36083739     1.02500
O425        O  0.13504642  0.74903292  0.35298390    -0.78000
O426        O  0.14260415  0.81560741  0.33138034    -0.78200
C427        C  0.12900280  0.81476339  0.30423164     1.02400
O428        O  0.09493076  0.86299894  0.34853520    -0.85500
O429        O  0.03014427  0.83954014  0.36572743    -0.82600
C430        C  0.00547811  0.81982107  0.37378696     0.98000
O431        O  0.00916430  0.78687093  0.37215459    -0.82600
O432        O  0.05905434  0.77119755  0.41619932    -0.85200
C433        C  0.08793606  0.77264324  0.43033359     1.02400
O434        O  0.11615580  0.77498208  0.41490667    -0.78000
O435        O  0.11958547  0.84227929  0.39090783    -0.78200
C436        C  0.11166561  0.86791256  0.37380330     1.02400
Cr437      Cr  0.06392474  0.82410247  0.33402250     1.93700
Cr438      Cr  0.05335327  0.75779292  0.37182223     1.93200
Cr439      Cr  0.12491011  0.79500926  0.37180531     1.39100
O440        O  0.08076907  0.79242883  0.35960913    -1.23300
O441        O  0.81701833  0.84920226  0.66646251    -0.85500
O442        O  0.75100988  0.85927009  0.64476683    -0.82600
C443        C  0.72365825  0.87394454  0.63538286     0.97900
O444        O  0.72521981  0.90338780  0.62214647    -0.82600
O445        O  0.74632877  0.94754187  0.67069504    -0.85200
C446        C  0.76629665  0.96179332  0.69051474     1.02500
O447        O  0.79869197  0.96335723  0.68547491    -0.78000
O448        O  0.81459935  0.89532022  0.69711622    -0.78200
C449        C  0.81736130  0.86282306  0.69360039     1.02400
O450        O  0.84420349  0.87139222  0.60730845    -0.79100
O451        O  0.77766460  0.87774988  0.58344263    -0.82600
C452        C  0.77699673  0.90618501  0.56831780     0.98000
O453        O  0.77630024  0.93507102  0.58254731    -0.82600
O454        O  0.79250964  0.98406570  0.62723379    -0.85200
C455        C  0.82545298  0.98684695  0.62496735     1.02400
O456        O  0.84455475  0.96151677  0.63242813    -0.78000
O457        O  0.86678166  0.89613018  0.64913900    -0.78200
C458        C  0.87034246  0.87866274  0.62408721     1.02400
Cr459      Cr  0.79715072  0.86782141  0.62629344     1.93700
Cr460      Cr  0.76248541  0.94040587  0.62660818     1.93200
Cr461      Cr  0.82881012  0.92791609  0.66407594     1.39100
O462        O  0.79630699  0.91195235  0.63867238    -1.23300
O463        O  0.81457630  0.89867587  0.30390166    -0.85500
O464        O  0.79743684  0.96514324  0.31833239    -0.82600
C465        C  0.76514452  0.96313630  0.31275935     0.97900
O466        O  0.74499733  0.94812795  0.33177145    -0.82600
O467        O  0.72403239  0.90371079  0.37971408    -0.85200
C468        C  0.72191784  0.87521614  0.36488682     1.02500
O469        O  0.74897087  0.86085334  0.35448419    -0.78000
O470        O  0.81467412  0.85071525  0.33190057    -0.78200
C471        C  0.81585788  0.86596470  0.30551981     1.02400
O472        O  0.86565957  0.89755920  0.35274717    -0.85500
O473        O  0.84276043  0.96222173  0.37190868    -0.82600
C474        C  0.82326929  0.98753156  0.37872685     0.98000
O475        O  0.79048156  0.98433702  0.37589209    -0.82600
O476        O  0.77546647  0.93440102  0.41929171    -0.85200
C477        C  0.77641574  0.90518380  0.43271344     1.02400
O478        O  0.77662447  0.87700341  0.41681131    -0.78000
O479        O  0.84242318  0.86975335  0.39239668    -0.78200
C480        C  0.86876828  0.87838781  0.37664143     1.02400
Cr481      Cr  0.82784028  0.92962987  0.33865713     1.93700
Cr482      Cr  0.76114678  0.94052851  0.37565469     1.93200
Cr483      Cr  0.79536868  0.86791629  0.37324471     1.39100
O484        O  0.79504016  0.91249631  0.36282572    -1.23300
O485        O  0.19027134  0.13622569  0.67047638    -0.85500
O486        O  0.25475216  0.12592380  0.64562367    -0.82600
C487        C  0.28150715  0.11162251  0.63458962     0.97900
O488        O  0.27922639  0.08220039  0.62103662    -0.82600
O489        O  0.25858315  0.03674932  0.66919551    -0.85200
C490        C  0.23885428  0.02205532  0.68886839     1.02500
O491        O  0.20638684  0.02095413  0.68420173    -0.78000
O492        O  0.19205325  0.08845097  0.69851641    -0.78200
C493        C  0.19136204  0.12122780  0.69701589     1.02400
O494        O  0.16019496  0.11580164  0.61040864    -0.85500
O495        O  0.22501125  0.10927137  0.58426846    -0.82600
C496        C  0.22563996  0.08132241  0.56801782     0.98000
O497        O  0.22704643  0.05189791  0.58122447    -0.82600
O498        O  0.21079696  0.00173934  0.62567037    -0.85200
C499        C  0.17769864  0.99872876  0.62517568     1.02400
O500        O  0.15906950  0.02453764  0.63250807    -0.78000
O501        O  0.13828817  0.09003397  0.65163239    -0.78200
C502        C  0.13424259  0.10751870  0.62679533     1.02400
Cr503      Cr  0.20775154  0.11833396  0.62840195     1.93700
Cr504      Cr  0.24152784  0.04525522  0.62535202     1.93200
Cr505      Cr  0.17627064  0.05736443  0.66464229     1.39100
O506        O  0.20832662  0.07373053  0.63904725    -1.23300
O507        O  0.15714954  0.11664840  0.31625131    -0.85500
O508        O  0.19819933  0.06164806  0.30055300    -0.82600
C509        C  0.22240483  0.03951832  0.30154180     0.97900
O510        O  0.23338933  0.02828151  0.32774611    -0.82600
O511        O  0.26946939  0.08322238  0.35457379    -0.85200
C512        C  0.27395037  0.11401877  0.36437907     1.02500
O513        O  0.25030308  0.12940001  0.37955250    -0.78000
O514        O  0.20310632  0.14531939  0.33250984    -0.78200
C515        C  0.17916997  0.14065967  0.31255214     1.02400
O516        O  0.12787633  0.07778766  0.36643731    -0.85500
O517        O  0.16364691  0.01940842  0.34604976    -0.82600
C518        C  0.17332801  0.00402921  0.37070304     0.98000
O519        O  0.19791188  0.01649312  0.38707725    -0.82600
O520        O  0.23678276  0.06908028  0.41501588    -0.85200
C521        C  0.21682933  0.08788259  0.43184207     1.02400
O522        O  0.19489143  0.10807878  0.41926853    -0.78000
O523        O  0.14655533  0.13081762  0.37564370    -0.78200
C524        C  0.12191764  0.10871086  0.37518560     1.02400
Cr525      Cr  0.16450469  0.06959314  0.33450825     1.93700
Cr526      Cr  0.23181976  0.05166739  0.37042470     1.93200
Cr527      Cr  0.19869211  0.12501854  0.37562639     1.39100
O528        O  0.19831439  0.08184112  0.36056326    -1.23300
O529        O  0.82956676  0.11215244  0.18689180    -0.85500
O530        O  0.79366461  0.05293728  0.19917865    -0.82600
C531        C  0.77077283  0.02952626  0.19663357     0.97900
O532        O  0.76030778  0.01945090  0.16985218    -0.82600
O533        O  0.72316232  0.07419180  0.14364973    -0.85200
C534        C  0.71748446  0.10420419  0.13271696     1.02500
O535        O  0.74087428  0.11982889  0.11762169    -0.78000
O536        O  0.78324663  0.13848650  0.16822648    -0.78200
C537        C  0.80590205  0.13485236  0.18953650     1.02400
O538        O  0.86493761  0.07742378  0.13621196    -0.85500
O539        O  0.83284258  0.01579397  0.15280997    -0.82600
C540        C  0.82337042  0.99959710  0.12834089     0.98000
O541        O  0.79813079  0.01060936  0.11205603    -0.82600
O542        O  0.75918437  0.06222252  0.08379478    -0.85200
C543        C  0.78011110  0.08128440  0.06828136     1.02400
O544        O  0.80037594  0.10239612  0.08211303    -0.78000
O545        O  0.84321613  0.12926246  0.12860758    -0.78200
C546        C  0.86908951  0.10885773  0.12840851     1.02400
Cr547      Cr  0.82762110  0.06521372  0.16653931     1.93700
Cr548      Cr  0.76249863  0.04422357  0.12818078     1.93200
Cr549      Cr  0.79204781  0.11907345  0.12528467     1.39100
O550        O  0.79416185  0.07579967  0.13977031    -1.23300
O551        O  0.82282455  0.13416915  0.83353546    -0.85500
O552        O  0.75653120  0.12564973  0.85548964    -0.82600
C553        C  0.72856436  0.11183163  0.86448403     0.97900
O554        O  0.72907343  0.08226392  0.87777154    -0.82600
O555        O  0.74883374  0.03701963  0.82959926    -0.85200
C556        C  0.76818579  0.02259817  0.80947477     1.02500
O557        O  0.80065301  0.02059775  0.81406248    -0.78000
O558        O  0.81831375  0.08837387  0.80271166    -0.78200
C559        C  0.82245781  0.12071541  0.80628137     1.02400
O560        O  0.84954439  0.11092626  0.89283739    -0.85500
O561        O  0.78272585  0.10606792  0.91677304    -0.82600
C562        C  0.78090766  0.07782818  0.93218970     0.98000
O563        O  0.77915989  0.04882151  0.91812266    -0.82600
O564        O  0.79448455  0.99932084  0.87262625    -0.85200
C565        C  0.82746214  0.99548065  0.87348610     1.02400
O566        O  0.84699213  0.02081686  0.86680559    -0.78000
O567        O  0.87094424  0.08604531  0.85073364    -0.78200
C568        C  0.87533183  0.10355492  0.87574277     1.02400
Cr569      Cr  0.80244168  0.11571212  0.87387370     1.93700
Cr570      Cr  0.76544140  0.04393718  0.87363978     1.93200
Cr571      Cr  0.83189118  0.05517816  0.83563660     1.39100
O572        O  0.80008385  0.07162424  0.86142053    -1.23300
O573        O  0.90394723  0.80762641  0.19632779    -0.85500
O574        O  0.97212829  0.79112133  0.18436632    -0.82600
C575        C  0.96992663  0.75877909  0.18934778     0.97900
O576        O  0.95522707  0.73915247  0.16951991    -0.82600
O577        O  0.90974745  0.71852621  0.12191859    -0.85200
C578        C  0.87982434  0.71844103  0.13458436     1.02500
O579        O  0.86596292  0.74664812  0.14295578    -0.78000
O580        O  0.85837382  0.81257804  0.16539402    -0.78200
C581        C  0.87159610  0.81146531  0.19269422     1.02400
O582        O  0.90589919  0.86066267  0.14905771    -0.85500
O583        O  0.97118467  0.83730601  0.13196982    -0.82600
C584        C  0.99605991  0.81772565  0.12394936     0.98000
O585        O  0.99243519  0.78468180  0.12540253    -0.82600
O586        O  0.94299892  0.76802120  0.08092207    -0.85200
C587        C  0.91429119  0.76946976  0.06650690     1.02400
O588        O  0.88589901  0.77242231  0.08159908    -0.78000
O589        O  0.88197492  0.83956984  0.10631648    -0.78200
C590        C  0.88872919  0.86519201  0.12399979     1.02400
Cr591      Cr  0.93704813  0.82181642  0.16337008     1.93700
Cr592      Cr  0.94804331  0.75513369  0.12538135     1.93200
Cr593      Cr  0.87657477  0.79238903  0.12481608     1.39100
O594        O  0.92053799  0.78990409  0.13743238    -1.23300
O595        O  0.86180516  0.80613000  0.83084943    -0.85500
O596        O  0.87113102  0.74061752  0.85245710    -0.82600
C597        C  0.88512688  0.71296944  0.86175115     0.97900
O598        O  0.91460834  0.71390461  0.87529569    -0.82600
O599        O  0.96006272  0.73421828  0.82793952    -0.85200
C600        C  0.97405489  0.75369524  0.80777398     1.02500
O601        O  0.97575974  0.78619710  0.81243139    -0.78000
O602        O  0.90736732  0.80153298  0.80007334    -0.78200
C603        C  0.87503332  0.80540887  0.80364477     1.02400
O604        O  0.88420744  0.83371297  0.88987953    -0.85500
O605        O  0.88930900  0.76690929  0.91436475    -0.82600
C606        C  0.91748737  0.76591254  0.93002283     0.98000
O607        O  0.94646989  0.76505523  0.91609617    -0.82600
O608        O  0.99605492  0.78144978  0.87183463    -0.85200
C609        C  0.99900760  0.81458683  0.87288035     1.02400
O610        O  0.97379176  0.83342975  0.86455093    -0.78000
O611        O  0.90817540  0.85503503  0.84738123    -0.78200
C612        C  0.89079198  0.85931793  0.87235323     1.02400
Cr613      Cr  0.88010865  0.78645015  0.87119252     1.93700
Cr614      Cr  0.95229065  0.75106622  0.87183404     1.93200
Cr615      Cr  0.94012203  0.81671385  0.83312245     1.39100
O616        O  0.92420619  0.78494328  0.85913516    -1.23300
O617        O  0.18303527  0.90537270  0.19319864    -0.85500
O618        O  0.19978393  0.97227367  0.17782687    -0.82600
C619        C  0.23167493  0.97171758  0.18507623     0.97900
O620        O  0.25299819  0.95469642  0.16854650    -0.82600
O621        O  0.27785383  0.90770366  0.12312584    -0.85200
C622        C  0.27823327  0.87831594  0.13650928     1.02500
O623        O  0.25014727  0.86447624  0.14510249    -0.78000
O624        O  0.18368061  0.85668638  0.16564912    -0.78200
C625        C  0.18195902  0.87255046  0.19182894     1.02400
O626        O  0.13394979  0.90217641  0.14312350    -0.85500
O627        O  0.15784627  0.96663810  0.12275334    -0.82600
C628        C  0.17791581  0.99170854  0.11622524     0.98000
O629        O  0.21060205  0.98843320  0.12043538    -0.82600
O630        O  0.23008320  0.93727077  0.07955001    -0.85200
C631        C  0.22917901  0.90798017  0.06612871     1.02400
O632        O  0.22579600  0.88006464  0.08189893    -0.78000
O633        O  0.15808888  0.87390788  0.10414848    -0.78200
C634        C  0.13130559  0.88220818  0.11958148     1.02400
Cr635      Cr  0.17113759  0.93518679  0.15734989     1.93700
Cr636      Cr  0.24033880  0.94481805  0.12388816     1.93200
Cr637      Cr  0.20470415  0.87235971  0.12478703     1.39100
O638        O  0.20524792  0.91724646  0.13493862    -1.23300
O639        O  0.18752764  0.84638108  0.83385043    -0.85500
O640        O  0.25384323  0.85859469  0.85380479    -0.82600
C641        C  0.28136511  0.87394846  0.86211427     0.97900
O642        O  0.28002552  0.90361255  0.87525062    -0.82600
O643        O  0.25729371  0.94745496  0.82767713    -0.85200
C644        C  0.23695439  0.96014423  0.80745595     1.02500
O645        O  0.20448505  0.96040052  0.81225370    -0.78000
O646        O  0.19058011  0.89117666  0.80212598    -0.78200
C647        C  0.18751330  0.85884817  0.80642169     1.02400
O648        O  0.16139687  0.86998420  0.89292488    -0.85500
O649        O  0.22912703  0.87718153  0.91532757    -0.82600
C650        C  0.23016777  0.90561238  0.93053199     0.98000
O651        O  0.22943955  0.93442661  0.91636645    -0.82600
O652        O  0.21059416  0.98219210  0.87178064    -0.85200
C653        C  0.17759610  0.98437647  0.87376425     1.02400
O654        O  0.15873957  0.95904457  0.86542379    -0.78000
O655        O  0.13843255  0.89253928  0.85043638    -0.78200
C656        C  0.13508201  0.87617813  0.87601340     1.02400
Cr657      Cr  0.20822632  0.86652656  0.87317949     1.93700
Cr658      Cr  0.24187001  0.93976599  0.87187242     1.93200
Cr659      Cr  0.17551031  0.92472584  0.83453767     1.39100
O660        O  0.20836399  0.91039689  0.86027184    -1.23300
O661        O  0.09542629  0.17718117  0.19543274    -0.85500
O662        O  0.02891327  0.19286129  0.18108236    -0.82600
C663        C  0.02735424  0.22512577  0.18723455     0.97900
O664        O  0.04278492  0.24690992  0.16988330    -0.82600
O665        O  0.08887716  0.27177405  0.12357419    -0.85200
C666        C  0.11746762  0.27382408  0.13823576     1.02500
O667        O  0.13168072  0.24670740  0.14845633    -0.78000
O668        O  0.14407607  0.18110999  0.16878613    -0.78200
C669        C  0.12811641  0.17950910  0.19480680     1.02400
O670        O  0.09847203  0.12835104  0.14382456    -0.85500
O671        O  0.03281411  0.15031485  0.12613539    -0.82600
C672        C  0.00681303  0.16957104  0.12107188     0.98000
O673        O  0.01006411  0.20246859  0.12342957    -0.82600
O674        O  0.06089634  0.22202596  0.08057693    -0.85200
C675        C  0.09069248  0.22193835  0.06794965     1.02400
O676        O  0.11824745  0.22131012  0.08462735    -0.78000
O677        O  0.12717387  0.15503055  0.10651911    -0.78200
C678        C  0.11813505  0.12735972  0.12004018     1.02400
Cr679      Cr  0.06537898  0.16465041  0.15973342     1.93700
Cr680      Cr  0.05296739  0.23325657  0.12528306     1.93200
Cr681      Cr  0.12672780  0.20109493  0.12772273     1.39100
O682        O  0.08178815  0.19937607  0.13716434    -1.23300
O683        O  0.15042995  0.20004562  0.83157367    -0.85500
O684        O  0.13352279  0.24849738  0.87728025    -0.82600
C685        C  0.11670807  0.27085719  0.86189352     0.97900
O686        O  0.08588481  0.26488342  0.85305788    -0.82600
O687        O  0.03195933  0.22561919  0.82860672    -0.85200
C688        C  0.04320169  0.21457980  0.80234243     1.02500
O689        O  0.06646474  0.19142710  0.80122915    -0.78000
O690        O  0.12312507  0.15242825  0.81742491    -0.78200
C691        C  0.14668265  0.17474645  0.81282677     1.02400
O692        O  0.13852543  0.14501907  0.87684803    -0.85500
O693        O  0.11552854  0.19414222  0.91920162    -0.82600
C694        C  0.09488906  0.21570938  0.93175476     0.98000
O695        O  0.07483600  0.23424984  0.91485706    -0.82600
O696        O  0.02291189  0.19203466  0.88904666    -0.85200
C697        C  0.01079644  0.16691229  0.87303141     1.02400
O698        O  0.02612701  0.15725660  0.84829688    -0.78000
O699        O  0.08585112  0.12456909  0.86929411    -0.78200
C700        C  0.11695475  0.11998349  0.87804061     1.02400
Cr701      Cr  0.13109465  0.19678298  0.87514141     1.93700
Cr702      Cr  0.05637833  0.22675815  0.87078166     1.93200
Cr703      Cr  0.07610695  0.15922845  0.83610773     1.39100
O704        O  0.08765465  0.19428144  0.86103306    -1.23300
C705        C  0.06803765  0.24003921  0.01528536    -0.21500
C706        C  0.09330504  0.22257488  0.03321746    -0.09500
C707        C  0.11987022  0.20424065  0.01758042     0.29300
C708        C  0.12035574  0.20252619  0.98472522    -0.21500
C709        C  0.09470757  0.21943314  0.96663204    -0.09500
C710        C  0.06888813  0.23892826  0.98237454     0.29300
F711        F  0.04396355  0.25633743  0.96613003    -0.20100
H712        H  0.04746087  0.25454110  0.02682127     0.17700
H713        H  0.14073078  0.18750565  0.97345278     0.17700
F714        F  0.14445806  0.18656469  0.03403452    -0.20000
C715        C  0.16525429  0.07994108  0.89328909    -0.21500
C716        C  0.12988918  0.08454154  0.88552504    -0.09500
C717        C  0.10915357  0.05479252  0.88009030     0.29300
C718        C  0.12452856  0.02179052  0.87864967    -0.21500
C719        C  0.16072452  0.01776054  0.88272344    -0.09500
C720        C  0.18058800  0.04693157  0.89197399     0.29300
F721        F  0.21521843  0.04404805  0.89798133    -0.20100
H722        H  0.18172977  0.10222647  0.89842591     0.17700
H723        H  0.10830619  0.99968659  0.87233649     0.17700
F724        F  0.07458012  0.05766477  0.87379054    -0.20000
C725        C  0.16869616  0.08957515  0.10619275    -0.21500
C726        C  0.13258047  0.09342402  0.11000237    -0.09500
C727        C  0.11128742  0.06363262  0.10917449     0.29300
C728        C  0.12620612  0.03038332  0.10807345    -0.21500
C729        C  0.16267314  0.02623615  0.10812767    -0.09500
C730        C  0.18375573  0.05627827  0.10530761     0.29300
F731        F  0.21901017  0.05373073  0.10406610    -0.20100
H732        H  0.18552044  0.11230258  0.10645949     0.17700
H733        H  0.10915334  0.00789430  0.10939564     0.17700
F734        F  0.07610019  0.06669253  0.11103439    -0.20000
C735        C  0.23060002  0.87488631  0.01527147    -0.21500
C736        C  0.23207867  0.90683117  0.03149677    -0.09500
C737        C  0.23518208  0.93796719  0.01414550     0.29300
C738        C  0.23525293  0.93706003  0.98149006    -0.21500
C739        C  0.23248122  0.90530157  0.96519289    -0.09500
C740        C  0.23091873  0.87400512  0.98242570     0.29300
F741        F  0.22897276  0.84257734  0.96770849    -0.20100
H742        H  0.22859510  0.85054628  0.02797163     0.17700
H743        H  0.23696397  0.96153739  0.96895759     0.17700
F744        F  0.23749364  0.96959715  0.02850950    -0.20000
C745        C  0.06195722  0.81188831  0.89023484    -0.21500
C746        C  0.03291702  0.83169240  0.88074274    -0.09500
C747        C  0.03762580  0.86778984  0.87556038     0.29300
C748        C  0.07087001  0.88259025  0.87672534    -0.21500
C749        C  0.10015281  0.86226801  0.88376883    -0.09500
C750        C  0.09530141  0.82708429  0.89202428     0.29300
F751        F  0.12309379  0.80665692  0.89899593    -0.20100
H752        H  0.05919756  0.78424122  0.89474820     0.17700
H753        H  0.07400460  0.90978045  0.87042505     0.17700
F754        F  0.01059627  0.88859942  0.86715457    -0.20000
C755        C  0.03379606  0.87064665  0.11907378    -0.21500
C756        C  0.03023974  0.83420846  0.11600301    -0.09500
C757        C  0.06019454  0.81449907  0.10857134     0.29300
C758        C  0.09307132  0.83076364  0.10675829    -0.21500
C759        C  0.09665137  0.86674405  0.11262976    -0.09500
C760        C  0.06647331  0.88665780  0.11771354     0.29300
F761        F  0.06877331  0.92155160  0.12299000    -0.20100
H762        H  0.01141786  0.88682964  0.12432767     0.17700
H763        H  0.11599817  0.81483051  0.10302149     0.17700
F764        F  0.05813069  0.77939474  0.10469916    -0.20000
C765        C  0.94623407  0.76975851  0.01545061    -0.21500
C766        C  0.91437932  0.76739871  0.03159583    -0.09500
C767        C  0.88348558  0.76335222  0.01397730     0.29300
C768        C  0.88465495  0.76252121  0.98104144    -0.21500
C769        C  0.91654786  0.76550929  0.96495847    -0.09500
C770        C  0.94744283  0.76881552  0.98269004     0.29300
F771        F  0.97898675  0.77179873  0.96853183    -0.20100
H772        H  0.97051049  0.77281827  0.02820348     0.17700
H773        H  0.86047678  0.75961251  0.96811846     0.17700
F774        F  0.85216052  0.75999115  0.02842812    -0.20000
C775        C  0.84048598  0.89777519  0.88680220    -0.21500
C776        C  0.87587412  0.89414591  0.87884459    -0.09500
C777        C  0.89546820  0.92414780  0.87233172     0.29300
C778        C  0.87979766  0.95695930  0.87276692    -0.21500
C779        C  0.84388919  0.96076011  0.87877369    -0.09500
C780        C  0.82441912  0.93073481  0.88644582     0.29300
F781        F  0.78971423  0.93289139  0.89225464    -0.20100
H782        H  0.82476638  0.87485176  0.89135254     0.17700
H783        H  0.89569633  0.97931609  0.86674717     0.17700
F784        F  0.92963900  0.92161577  0.86439862    -0.20000
C785        C  0.94910819  0.16710505  0.89384957    -0.21500
C786        C  0.97768044  0.14886862  0.88126727    -0.09500
C787        C  0.97292774  0.11377227  0.87216782     0.29300
C788        C  0.93987078  0.09848448  0.87275010    -0.21500
C789        C  0.91070295  0.11748492  0.88277526    -0.09500
C790        C  0.91580075  0.15156149  0.89465353     0.29300
F791        F  0.88821879  0.17092226  0.90434698    -0.20100
H792        H  0.95201856  0.19411237  0.90097759     0.17700
H793        H  0.93679172  0.07210870  0.86389570     0.17700
F794        F  0.00008762  0.09460280  0.86121363    -0.20000
C795        C  0.89281313  0.92980143  0.12803519    -0.21500
C796        C  0.87422062  0.90034930  0.11774162    -0.09500
C797        C  0.83989540  0.90477426  0.10655763     0.29300
C798        C  0.82389659  0.93777137  0.10782367    -0.21500
C799        C  0.84183941  0.96667706  0.12037103    -0.09500
C800        C  0.87699363  0.96257019  0.12921263     0.29300
F801        F  0.89575018  0.99007461  0.14029549    -0.20100
H802        H  0.91929649  0.92714281  0.13657227     0.17700
H803        H  0.79679359  0.94018725  0.10102534     0.17700
F804        F  0.82077451  0.87677834  0.09716524    -0.20000
C805        C  0.90845558  0.15936952  0.11745900    -0.21500
C806        C  0.90435431  0.12319648  0.12169698    -0.09500
C807        C  0.93436406  0.10209903  0.12202160     0.29300
C808        C  0.96754573  0.11718525  0.11956453    -0.21500
C809        C  0.97167963  0.15359228  0.11707925    -0.09500
C810        C  0.94154710  0.17447940  0.11535484     0.29300
F811        F  0.94383578  0.20974466  0.11329321    -0.20100
H812        H  0.88597426  0.17642182  0.11711854     0.17700
H813        H  0.99012667  0.10035783  0.12114366     0.17700
F814        F  0.93189562  0.06707508  0.12602212    -0.20000
C815        C  0.79036536  0.10947514  0.01645611    -0.21500
C816        C  0.77996794  0.07998788  0.03352898    -0.09500
C817        C  0.76978355  0.04972476  0.01706076     0.29300
C818        C  0.77015644  0.04917839  0.98416681    -0.21500
C819        C  0.78026619  0.07885224  0.96704694    -0.09500
C820        C  0.79032666  0.10911020  0.98364373     0.29300
F821        F  0.80075049  0.13826856  0.96829031    -0.20100
H822        H  0.79829360  0.13311177  0.02856687     0.17700
H823        H  0.76243310  0.02546146  0.97208631     0.17700
F824        F  0.76035207  0.02039012  0.03268201    -0.20000
C825        C  0.22727743  0.04329194  0.24352483    -0.21500
C826        C  0.23557818  0.02542271  0.27131210    -0.09500
C827        C  0.25171086  0.99246468  0.26901860     0.29300
C828        C  0.25486928  0.97600486  0.23960787    -0.21500
C829        C  0.24235720  0.99247580  0.21247529    -0.09500
C830        C  0.23054902  0.02701585  0.21441698     0.29300
F831        F  0.21869750  0.04367598  0.18840032    -0.20100
H832        H  0.21561518  0.06898054  0.24439300     0.17700
H833        H  0.26381929  0.94923857  0.23846418     0.17700
F834        F  0.26122092  0.97476655  0.29519338    -0.20000
C835        C  0.18010737  0.16308384  0.22763116    -0.21500
C836        C  0.14711885  0.17875835  0.22514798    -0.09500
C837        C  0.13027250  0.19006919  0.25277475     0.29300
C838        C  0.14401873  0.18183418  0.28217281    -0.21500
C839        C  0.17488664  0.16260202  0.28464510    -0.09500
C840        C  0.19392943  0.15494966  0.25728545     0.29300
F841        F  0.22377994  0.13611999  0.25910519    -0.20100
H842        H  0.19374491  0.15446972  0.20673955     0.17700
H843        H  0.12881283  0.18758994  0.30299673     0.17700
F844        F  0.09917653  0.20689981  0.25143253    -0.20000
C845        C  0.23489487  0.05756266  0.48138740    -0.21500
C846        C  0.21977517  0.08662705  0.46666757    -0.09500
C847        C  0.20760512  0.11428867  0.48560000     0.29300
C848        C  0.21032670  0.11263852  0.51837121    -0.21500
C849        C  0.22470393  0.08325496  0.53313084    -0.09500
C850        C  0.23712286  0.05567712  0.51420829     0.29300
F851        F  0.25178052  0.02699809  0.52732690    -0.20100
H852        H  0.24458010  0.03593958  0.46746852     0.17700
H853        H  0.20052104  0.13421564  0.53227840     0.17700
F854        F  0.19340771  0.14321201  0.47251357    -0.20000
C855        C  0.25745483  0.00985957  0.77441119    -0.21500
C856        C  0.24983135  0.97418990  0.77743128    -0.09500
C857        C  0.24650107  0.95366281  0.75022348     0.29300
C858        C  0.24735931  0.96906396  0.72053891    -0.21500
C859        C  0.25211037  0.00515179  0.71748648    -0.09500
C860        C  0.25895873  0.02525642  0.74453225     0.29300
F861        F  0.26329528  0.06028724  0.74224598    -0.20100
H862        H  0.25952048  0.02622188  0.79514732     0.17700
H863        H  0.24130389  0.95326843  0.70005904     0.17700
F864        F  0.23899783  0.91924291  0.75249942    -0.20000
C865        C  0.19743975  0.12347486  0.75509200    -0.21500
C866        C  0.18940721  0.14102424  0.72704699    -0.09500
C867        C  0.17523828  0.17488492  0.72897513     0.29300
C868        C  0.16528071  0.18864035  0.75829872    -0.21500
C869        C  0.16967361  0.16892037  0.78575500    -0.09500
C870        C  0.18757421  0.13713482  0.78409019     0.29300
F871        F  0.19208160  0.11747590  0.81025511    -0.20100
H872        H  0.20888296  0.09769617  0.75453850     0.17700
H873        H  0.15117546  0.21307443  0.75918728     0.17700
F874        F  0.16785696  0.19316965  0.70256871    -0.20000
C875        C  0.84245421  0.81583625  0.27701039    -0.21500
C876        C  0.82217351  0.84623213  0.27629639    -0.09500
C877        C  0.81296569  0.86062927  0.24704442     0.29300
C878        C  0.82661733  0.84683080  0.21933359    -0.21500
C879        C  0.85005683  0.81891907  0.22041970    -0.09500
C880        C  0.85657392  0.80239807  0.24924800     0.29300
F881        F  0.87785252  0.77429366  0.25072255    -0.20100
H882        H  0.84965555  0.80411075  0.29919911     0.17700
H883        H  0.82116158  0.85983575  0.19731389     0.17700
F884        F  0.79268625  0.88948721  0.24532738    -0.20000
C885        C  0.74795262  0.96084228  0.25674019    -0.21500
C886        C  0.75234962  0.98034299  0.28445512    -0.09500
C887        C  0.75591091  0.01657838  0.28272434     0.29300
C888        C  0.75861121  0.03267809  0.25363540    -0.21500
C889        C  0.75807142  0.01301938  0.22575074    -0.09500
C890        C  0.75098125  0.97701980  0.22735320     0.29300
F891        F  0.75106871  0.95695716  0.20099024    -0.20100
H892        H  0.74554206  0.93275300  0.25787592     0.17700
H893        H  0.76402901  0.06023249  0.25307371     0.17700
F894        F  0.76080063  0.03586245  0.30921641    -0.20000
C895        C  0.78364766  0.87460913  0.51716213    -0.21500
C896        C  0.77649701  0.90565255  0.53364202    -0.09500
C897        C  0.76951165  0.93624565  0.51660845     0.29300
C898        C  0.76939790  0.93555075  0.48394931    -0.21500
C899        C  0.77633406  0.90454309  0.46738789    -0.09500
C900        C  0.78374402  0.87399991  0.48431932     0.29300
F901        F  0.79178965  0.84377502  0.46928938    -0.20100
H902        H  0.78961222  0.85081798  0.52969387     0.17700
H903        H  0.76372520  0.95954599  0.47161492     0.17700
F904        F  0.76249237  0.96693603  0.53133551    -0.20000
C905        C  0.81352777  0.85319043  0.75092965    -0.21500
C906        C  0.82468615  0.84150353  0.72134166    -0.09500
C907        C  0.84773038  0.81312822  0.71933266     0.29300
C908        C  0.86225285  0.79942491  0.74665347    -0.21500
C909        C  0.85344762  0.81329364  0.77613166    -0.09500
C910        C  0.82755991  0.83906018  0.77821982     0.29300
F911        F  0.81860968  0.85328570  0.80633842    -0.20100
H912        H  0.79567775  0.87490361  0.75292517     0.17700
H913        H  0.88187314  0.77938926  0.74463859     0.17700
F914        F  0.85903361  0.80108762  0.69108433    -0.20000
C915        C  0.75392363  0.01378293  0.72315089    -0.21500
C916        C  0.75312524  0.97740418  0.71977024    -0.09500
C917        C  0.74936545  0.95654845  0.74661796     0.29300
C918        C  0.75044541  0.97181215  0.77660737    -0.21500
C919        C  0.75423070  0.00805417  0.77997326    -0.09500
C920        C  0.75395472  0.02904867  0.75305937     0.29300
F921        F  0.75739920  0.06409869  0.75575631    -0.20100
H922        H  0.75737050  0.03021088  0.70273349     0.17700
H923        H  0.75114867  0.95518112  0.79711131     0.17700
F924        F  0.74846652  0.92128480  0.74391044    -0.20000
C925        C  0.03580182  0.74227671  0.25246590    -0.21500
C926        C  0.01488100  0.74674516  0.27919651    -0.09500
C927        C  0.97848530  0.74705537  0.27578915     0.29300
C928        C  0.96348515  0.74599106  0.24580550    -0.21500
C929        C  0.98452751  0.74539653  0.21892458    -0.09500
C930        C  0.02076309  0.74192099  0.22241226     0.29300
F931        F  0.04172650  0.74168308  0.19676180    -0.20100
H932        H  0.06391826  0.74247839  0.25468411     0.17700
H933        H  0.93562364  0.74898688  0.24344847     0.17700
F934        F  0.95769915  0.75182734  0.30122882    -0.20000
C935        C  0.17245443  0.85220067  0.27789320    -0.21500
C936        C  0.14976095  0.82354389  0.27646730    -0.09500
C937        C  0.14261691  0.80771947  0.24733303     0.29300
C938        C  0.15580139  0.82216240  0.21975595    -0.21500
C939        C  0.17553571  0.85299571  0.22091696    -0.09500
C940        C  0.18501288  0.86714378  0.25030088     0.29300
F941        F  0.20479982  0.89648282  0.25229778    -0.20100
H942        H  0.17814525  0.86477139  0.30017709     0.17700
H943        H  0.14836755  0.81073086  0.19740164     0.17700
F944        F  0.12136189  0.77946146  0.24544249    -0.20000
C945        C  0.94207507  0.81414745  0.38768631    -0.21500
C946        C  0.97120598  0.83551951  0.38182950    -0.09500
C947        C  0.96623803  0.87194569  0.37993949     0.29300
C948        C  0.93271494  0.88596781  0.38064709    -0.21500
C949        C  0.90353976  0.86432977  0.38405301    -0.09500
C950        C  0.90847134  0.82842698  0.38898778     0.29300
F951        F  0.88068399  0.80674927  0.39206672    -0.20100
H952        H  0.94502269  0.78613101  0.38947607     0.17700
H953        H  0.92939190  0.91372953  0.37699220     0.17700
F954        F  0.99344164  0.89402684  0.37534717    -0.20000
C955        C  0.12133595  0.96541929  0.36788570    -0.21500
C956        C  0.15558069  0.97070904  0.37872653    -0.09500
C957        C  0.17284870  0.94284244  0.39354286     0.29300
C958        C  0.15723287  0.90956452  0.39452530    -0.21500
C959        C  0.12424773  0.90378033  0.38086938    -0.09500
C960        C  0.10579171  0.93252927  0.36897989     0.29300
F961        F  0.07327202  0.92848833  0.35681984    -0.20100
H962        H  0.10700673  0.98658976  0.35712490     0.17700
H963        H  0.17197626  0.88787072  0.40385812     0.17700
F964        F  0.20575466  0.94696593  0.40468911    -0.20000
C965        C  0.90883930  0.82850880  0.61022095    -0.21500
C966        C  0.90507783  0.86425999  0.61668120    -0.09500
C967        C  0.93505535  0.88466960  0.62136425     0.29300
C968        C  0.96802497  0.86919825  0.62149634    -0.21500
C969        C  0.97182736  0.83287906  0.61765355    -0.09500
C970        C  0.94184779  0.81279070  0.61093079     0.29300
F971        F  0.94402877  0.77772266  0.60688051    -0.20100
H972        H  0.88598446  0.81226459  0.60688921     0.17700
H973        H  0.99044791  0.88555210  0.62639362     0.17700
F974        F  0.93231067  0.91941429  0.62717689    -0.20000
C975        C  0.18110349  0.93426531  0.61374870    -0.21500
C976        C  0.16077537  0.96408920  0.61982887    -0.09500
C977        C  0.12458014  0.95963205  0.62460070     0.29300
C978        C  0.10987503  0.92621155  0.62537860    -0.21500
C979        C  0.13047135  0.89648985  0.62065199    -0.09500
C980        C  0.16613790  0.90080384  0.61400085     0.29300
F981        F  0.18707009  0.87257738  0.61025582    -0.20100
H982        H  0.20894664  0.93665999  0.61018913     0.17700
H983        H  0.08237669  0.92346878  0.63060748     0.17700
F984        F  0.10346184  0.98734509  0.63021016    -0.20000
C985        C  0.05786655  0.76835441  0.51523290    -0.21500
C986        C  0.08945749  0.76989503  0.53194336    -0.09500
C987        C  0.12085415  0.77180572  0.51484933     0.29300
C988        C  0.12029259  0.77246991  0.48188450    -0.21500
C989        C  0.08855175  0.77117290  0.46526763    -0.09500
C990        C  0.05727673  0.76890598  0.48248919     0.29300
F991        F  0.02582619  0.76738557  0.46787657    -0.20100
H992        H  0.03321964  0.76680467  0.52752512     0.17700
H993        H  0.14478852  0.77416302  0.46937322     0.17700
F994        F  0.15208979  0.77325731  0.52982039    -0.20000
C995        C  0.02412061  0.73730981  0.77376894    -0.21500
C996        C  0.98795881  0.73992674  0.77799071    -0.09500
C997        C  0.96604892  0.73883963  0.75155612     0.29300
C998        C  0.98024726  0.73985642  0.72129648    -0.21500
C999        C  0.01647748  0.74045340  0.71713455    -0.09500
C1000       C  0.03829930  0.73678926  0.74343524     0.29300
F1001       F  0.07341638  0.73647945  0.73985333    -0.20100
H1002       H  0.04144013  0.73841477  0.79387741     0.17700
H1003       H  0.96304160  0.74293627  0.70129146     0.17700
F1004       F  0.93100634  0.74052224  0.75511563    -0.20000
C1005       C  0.13577830  0.80157458  0.75301526    -0.21500
C1006       C  0.15002704  0.81065303  0.72376725    -0.09500
C1007       C  0.18152019  0.82944776  0.72285129     0.29300
C1008       C  0.19591965  0.84243748  0.75063399    -0.21500
C1009       C  0.17942174  0.83649986  0.77945049    -0.09500
C1010       C  0.15054688  0.81409065  0.78077238     0.29300
F1011       F  0.13423829  0.80761995  0.80844694    -0.20100
H1012       H  0.11174476  0.78691106  0.75436447     0.17700
H1013       H  0.21877507  0.85886351  0.74946300     0.17700
F1014       F  0.19643959  0.83836950  0.69512544    -0.20000
C1015       C  0.80681272  0.15485562  0.27481076    -0.21500
C1016       C  0.83558759  0.17750978  0.27590021    -0.09500
C1017       C  0.84636783  0.19385925  0.24799921     0.29300
C1018       C  0.83271843  0.18320134  0.21905310    -0.21500
C1019       C  0.80711676  0.15719740  0.21764460    -0.09500
C1020       C  0.79237383  0.14507246  0.24575491     0.29300
F1021       F  0.76630938  0.12124161  0.24488212    -0.20100
H1022       H  0.79748106  0.14249815  0.29603987     0.17700
H1023       H  0.84433922  0.19299105  0.19763837     0.17700
F1024       F  0.87169219  0.21856708  0.24857487    -0.20000
C1025       C  0.99893114  0.25695171  0.26769104    -0.21500
C1026       C  0.97094584  0.23379039  0.27255515    -0.09500
C1027       C  0.95860716  0.21380628  0.24713767     0.29300
C1028       C  0.97477763  0.21539800  0.21813502    -0.21500
C1029       C  0.00501200  0.23530486  0.21394070    -0.09500
C1030       C  0.01624132  0.25751741  0.23842496     0.29300
F1031       F  0.04565700  0.27684903  0.23516234    -0.20100
H1032       H  0.00926648  0.27206401  0.28714871     0.17700
H1033       H  0.96561500  0.19809484  0.19964549     0.17700
F1034       F  0.93316003  0.18968131  0.25110126    -0.20000
C1035       C  0.07992426  0.15575869  0.38995687    -0.21500
C1036       C  0.08566670  0.12082873  0.38107877    -0.09500
C1037       C  0.05656839  0.09981969  0.37371012     0.29300
C1038       C  0.02310633  0.11439988  0.37267772    -0.21500
C1039       C  0.01790835  0.15014249  0.37880662    -0.09500
C1040       C  0.04655690  0.17031906  0.38884073     0.29300
F1041       F  0.04275424  0.20459540  0.39619916    -0.20100
H1042       H  0.10161605  0.17253038  0.39622602     0.17700
H1043       H  0.00154920  0.09804672  0.36522931     0.17700
F1044       F  0.06052685  0.06581525  0.36543175    -0.20000
C1045       C  0.88684393  0.06260074  0.37910394    -0.21500
C1046       C  0.86466823  0.09082007  0.38524710    -0.09500
C1047       C  0.83023335  0.08439689  0.39473742     0.29300
C1048       C  0.81736830  0.05017089  0.39493025    -0.21500
C1049       C  0.83880679  0.02203723  0.38600869    -0.09500
C1050       C  0.87428071  0.02849827  0.37969030     0.29300
F1051       F  0.89625777  0.00234748  0.37130518    -0.20100
H1052       H  0.91353589  0.06715433  0.37186501     0.17700
H1053       H  0.79007178  0.04593927  0.40015959     0.17700
F1054       F  0.80814233  0.11125010  0.40065724    -0.20000
C1055       C  0.03615841  0.11400256  0.62307464    -0.21500
C1056       C  0.03137930  0.14864304  0.61314695    -0.09500
C1057       C  0.06076185  0.16792185  0.60351249     0.29300
C1058       C  0.09423879  0.15346866  0.60585521    -0.21500
C1059       C  0.09898115  0.11997296  0.61844572    -0.09500
C1060       C  0.06952748  0.09994888  0.62609430     0.29300
F1061       F  0.07304156  0.06717155  0.63763731    -0.20100
H1062       H  0.01417821  0.09836565  0.63057352     0.17700
H1063       H  0.11659678  0.16931149  0.59971343     0.17700
F1064       F  0.05738447  0.20123439  0.59328407    -0.20000
C1065       C  0.89309141  0.05836480  0.61803186    -0.21500
C1066       C  0.87224176  0.08781160  0.61305388    -0.09500
C1067       C  0.83642964  0.08326383  0.60722680     0.29300
C1068       C  0.82142138  0.04992621  0.60922671    -0.21500
C1069       C  0.84197099  0.02069387  0.61671032    -0.09500
C1070       C  0.87836305  0.02514892  0.61959168     0.29300
F1071       F  0.89967856  0.99788191  0.62614542    -0.20100
H1072       H  0.92076271  0.06133229  0.62249222     0.17700
H1073       H  0.79345530  0.04731822  0.60659561     0.17700
F1074       F  0.81547057  0.11126885  0.60257867    -0.20000
C1075       C  0.94105636  0.22253815  0.51256480    -0.21500
C1076       C  0.91029489  0.22081708  0.53036639    -0.09500
C1077       C  0.87803747  0.22120089  0.51440719     0.29300
C1078       C  0.87696613  0.22185119  0.48144001    -0.21500
C1079       C  0.90789802  0.22239100  0.46369466    -0.09500
C1080       C  0.94002363  0.22341612  0.47982188     0.29300
F1081       F  0.97075889  0.22472031  0.46410836    -0.20100
H1082       H  0.96631177  0.22274575  0.52397367     0.17700
H1083       H  0.85184277  0.22142904  0.46980567     0.17700
F1084       F  0.84751554  0.22050740  0.53047358    -0.20000
C1085       C  0.03078166  0.22904615  0.71544671    -0.21500
C1086       C  0.99459827  0.23346370  0.71361650    -0.09500
C1087       C  0.97536215  0.23754253  0.74143051     0.29300
C1088       C  0.99181254  0.23425621  0.77071631    -0.21500
C1089       C  0.02757834  0.22659225  0.77247020    -0.09500
C1090       C  0.04726010  0.22588740  0.74457728     0.29300
F1091       F  0.08212040  0.21996393  0.74536699    -0.20100
H1092       H  0.04589451  0.22526109  0.69421719     0.17700
H1093       H  0.97609934  0.23485661  0.79183120     0.17700
F1094       F  0.94020639  0.24100407  0.74021235    -0.20000
C1095       C  0.87239087  0.17772648  0.75082604    -0.21500
C1096       C  0.85797853  0.16750397  0.72180886    -0.09500
C1097       C  0.82776212  0.14674878  0.72150144     0.29300
C1098       C  0.81442279  0.13382401  0.74964037    -0.21500
C1099       C  0.83053340  0.14177983  0.77841614    -0.09500
C1100       C  0.85858354  0.16532251  0.77899647     0.29300
F1101       F  0.87483550  0.17352795  0.80641947    -0.20100
H1102       H  0.89558176  0.19377042  0.75164657     0.17700
H1103       H  0.79257952  0.11608091  0.74879364     0.17700
F1104       F  0.81310691  0.13616543  0.69400704    -0.20000
C1105       C  0.36109620  0.16242609  0.60885170    -0.21500
C1106       C  0.36571719  0.18455187  0.63496784    -0.09500
C1107       C  0.34696646  0.17771200  0.66259878     0.29300
C1108       C  0.32167875  0.15148021  0.66309369    -0.21500
C1109       C  0.31465234  0.13140066  0.63614797    -0.09500
C1110       C  0.33563098  0.13598500  0.60935158     0.29300
F1111       F  0.32902496  0.11759658  0.58266876    -0.20100
H1112       H  0.37504801  0.16748815  0.58723835     0.17700
H1113       H  0.30599789  0.14826563  0.68403765     0.17700
F1114       F  0.35165094  0.19787310  0.68858194    -0.20000
C1115       C  0.33481173  0.13256316  0.37811449    -0.21500
C1116       C  0.30605396  0.13388959  0.35764903    -0.09500
C1117       C  0.30460372  0.16035129  0.33504819     0.29300
C1118       C  0.32988285  0.18660869  0.33459209    -0.21500
C1119       C  0.35715617  0.18724426  0.35675842    -0.09500
C1120       C  0.36047374  0.15888880  0.37752881     0.29300
F1121       F  0.38645654  0.15830845  0.39917866    -0.20100
H1122       H  0.33605070  0.11262000  0.39602771     0.17700
H1123       H  0.32682128  0.20781120  0.31806690     0.17700
F1124       F  0.27705802  0.16244110  0.31507451    -0.20000
C1125       C  0.38351613  0.27983472  0.48184238    -0.21500
C1126       C  0.41346430  0.27204064  0.46431233    -0.09500
C1127       C  0.44487409  0.26499543  0.48044810     0.29300
C1128       C  0.44592069  0.26547359  0.51324356    -0.21500
C1129       C  0.41587994  0.27295514  0.53073532    -0.09500
C1130       C  0.38462536  0.28045934  0.51463857     0.29300
F1131       F  0.35516053  0.28908952  0.53046396    -0.20100
H1132       H  0.35918253  0.28591765  0.47016582     0.17700
H1133       H  0.47032123  0.25972417  0.52495341     0.17700
F1134       F  0.47471366  0.25750360  0.46471014    -0.20000
C1135       C  0.16098398  0.67606671  0.66228522    -0.21500
C1136       C  0.13777598  0.68027732  0.63698175    -0.09500
C1137       C  0.13717020  0.65478056  0.61305394     0.29300
C1138       C  0.16201371  0.62786370  0.61293152    -0.21500
C1139       C  0.18696606  0.62555254  0.63703885    -0.09500
C1140       C  0.18529870  0.64898304  0.66236858     0.29300
F1141       F  0.20958490  0.64784937  0.68558124    -0.20100
H1142       H  0.16182527  0.69517238  0.68111137     0.17700
H1143       H  0.16349687  0.61049916  0.59282916     0.17700
F1144       F  0.11513437  0.65787651  0.58824612    -0.20000
C1145       C  0.32605500  0.43916058  0.60261950    -0.21500
C1146       C  0.34267342  0.46736197  0.61775205    -0.09500
C1147       C  0.37684673  0.46253737  0.62918889     0.29300
C1148       C  0.39245694  0.42969351  0.62835460    -0.21500
C1149       C  0.37480100  0.40072377  0.61582516    -0.09500
C1150       C  0.34198659  0.40602493  0.60158762     0.29300
F1151       F  0.32406839  0.37873600  0.58909589    -0.20100
H1152       H  0.29988405  0.44215515  0.59346251     0.17700
H1153       H  0.41794589  0.42657111  0.63897623     0.17700
F1154       F  0.39476254  0.48934487  0.64258921    -0.20000
C1155       C  0.13461847  0.65962412  0.37630685    -0.21500
C1156       C  0.13905039  0.68768541  0.35550614    -0.09500
C1157       C  0.16465141  0.68517337  0.33191428     0.29300
C1158       C  0.18780459  0.65711213  0.33156174    -0.21500
C1159       C  0.18572358  0.63109419  0.35448529    -0.09500
C1160       C  0.15802940  0.63156441  0.37598284     0.29300
F1161       F  0.15568529  0.60672085  0.39849864    -0.20100
H1162       H  0.11491854  0.66077705  0.39447627     0.17700
H1163       H  0.20923729  0.65724060  0.31500059     0.17700
F1164       F  0.16876359  0.71092884  0.31042152    -0.20000
C1165       C  0.38704073  0.43229055  0.37196219    -0.21500
C1166       C  0.36744043  0.40285816  0.38032758    -0.09500
C1167       C  0.33248123  0.40745088  0.38961996     0.29300
C1168       C  0.31695369  0.44068341  0.38821430    -0.21500
C1169       C  0.33605806  0.46958354  0.37741868    -0.09500
C1170       C  0.37170728  0.46525232  0.37066183     0.29300
F1171       F  0.39148488  0.49276036  0.36143183    -0.20100
H1172       H  0.41402262  0.42946748  0.36491078     0.17700
H1173       H  0.28946111  0.44332897  0.39343174     0.17700
F1174       F  0.31249451  0.37948435  0.39717915    -0.20000
C1175       C  0.24839685  0.56953430  0.48041199    -0.21500
C1176       C  0.27697610  0.58292387  0.46364063    -0.09500
C1177       C  0.30631267  0.59480461  0.48058347     0.29300
C1178       C  0.30655804  0.59421649  0.51331256    -0.21500
C1179       C  0.27783925  0.58158731  0.53020890    -0.09500
C1180       C  0.24872207  0.56887562  0.51341609     0.29300
F1181       F  0.22017245  0.55689717  0.52878631    -0.20100
H1182       H  0.22549154  0.56026268  0.46801126     0.17700
H1183       H  0.32953424  0.60369350  0.52549920     0.17700
F1184       F  0.33513978  0.60678408  0.46559865    -0.20000
C1185       C  0.63899897  0.82870046  0.61437409    -0.21500
C1186       C  0.63732794  0.80407850  0.63868000    -0.09500
C1187       C  0.65997059  0.80752254  0.66452080     0.29300
C1188       C  0.68627050  0.83256879  0.66435500    -0.21500
C1189       C  0.69040600  0.85486895  0.63860912    -0.09500
C1190       C  0.66546524  0.85408501  0.61428523     0.29300
F1191       F  0.66881906  0.87522236  0.58897064    -0.20100
H1192       H  0.62192386  0.82633684  0.59418175     0.17700
H1193       H  0.70484922  0.83308874  0.68356035     0.17700
F1194       F  0.65835268  0.78481767  0.68889108    -0.20000
C1195       C  0.46948348  0.61415394  0.62351125    -0.21500
C1196       C  0.47398429  0.64965735  0.61626135    -0.09500
C1197       C  0.44522667  0.66872826  0.60521645     0.29300
C1198       C  0.41218622  0.65337332  0.60436542    -0.21500
C1199       C  0.40716791  0.61885007  0.61455937    -0.09500
C1200       C  0.43646877  0.59885200  0.62282057     0.29300
F1201       F  0.43307419  0.56539432  0.63270544    -0.20100
H1202       H  0.49118655  0.59864028  0.63178176     0.17700
H1203       H  0.39017825  0.66923616  0.59738288     0.17700
F1204       F  0.44859287  0.70266011  0.59672814    -0.20000
C1205       C  0.68353684  0.83608433  0.33420240    -0.21500
C1206       C  0.68839644  0.85693622  0.36098209    -0.09500
C1207       C  0.66376500  0.85549078  0.38543780     0.29300
C1208       C  0.63702710  0.83049973  0.38444577    -0.21500
C1209       C  0.63481314  0.80699360  0.35911454    -0.09500
C1210       C  0.65693252  0.81141425  0.33315475     0.29300
F1211       F  0.65459399  0.78988990  0.30780519    -0.20100
H1212       H  0.70182191  0.83731368  0.31485686     0.17700
H1213       H  0.62026466  0.82738638  0.40469944     0.17700
F1214       F  0.66772395  0.87541104  0.41165300    -0.20000
C1215       C  0.46653863  0.61757332  0.37079310    -0.21500
C1216       C  0.47094786  0.65327278  0.37769511    -0.09500
C1217       C  0.44201222  0.67257118  0.38807396     0.29300
C1218       C  0.40903307  0.65710355  0.38897331    -0.21500
C1219       C  0.40415180  0.62222325  0.37942284    -0.09500
C1220       C  0.43354383  0.60214672  0.37152781     0.29300
F1221       F  0.43027483  0.56836092  0.36226337    -0.20100
H1222       H  0.48836220  0.60189247  0.36299212     0.17700
H1223       H  0.38696245  0.67310327  0.39559133     0.17700
F1224       F  0.44517485  0.70676054  0.39603424    -0.20000
C1225       C  0.55385975  0.71472856  0.51524565    -0.21500
C1226       C  0.58551959  0.71872789  0.53159610    -0.09500
C1227       C  0.61632976  0.72373283  0.51423355     0.29300
C1228       C  0.61526146  0.72469603  0.48138608    -0.21500
C1229       C  0.58359759  0.72063353  0.46506178    -0.09500
C1230       C  0.55279392  0.71555104  0.48245245     0.29300
F1231       F  0.52159469  0.71080356  0.46792830    -0.20100
H1232       H  0.52971665  0.71057364  0.52785579     0.17700
H1233       H  0.63939975  0.72860994  0.46871515     0.17700
F1234       F  0.64752192  0.72797105  0.52885215    -0.20000
C1235       C  0.84028364  0.35340783  0.61391510    -0.21500
C1236       C  0.81582141  0.35532284  0.63841590    -0.09500
C1237       C  0.81981817  0.33323262  0.66448316     0.29300
C1238       C  0.84507898  0.30713339  0.66433460    -0.21500
C1239       C  0.86717506  0.30267205  0.63841688    -0.09500
C1240       C  0.86595018  0.32723137  0.61388916     0.29300
F1241       F  0.88702258  0.32378222  0.58848537    -0.20100
H1242       H  0.83770548  0.37014901  0.59361374     0.17700
H1243       H  0.84594480  0.28895178  0.68374341     0.17700
F1244       F  0.79764345  0.33533819  0.68925482    -0.20000
C1245       C  0.61234982  0.55970484  0.62734141    -0.21500
C1246       C  0.63144490  0.58930785  0.61877773    -0.09500
C1247       C  0.66656320  0.58529216  0.60986981     0.29300
C1248       C  0.68253035  0.55227758  0.61113494    -0.21500
C1249       C  0.66364889  0.52275044  0.62099484    -0.09500
C1250       C  0.62793652  0.52687881  0.62826065     0.29300
F1251       F  0.60823165  0.49962626  0.63817896    -0.20100
H1252       H  0.58539993  0.56222747  0.63459241     0.17700
H1253       H  0.70997146  0.55007796  0.60555904     0.17700
F1254       F  0.68613091  0.61357799  0.60237324    -0.20000
C1255       C  0.57151980  0.38723154  0.62927466    -0.21500
C1256       C  0.60030610  0.36690604  0.62057988    -0.09500
C1257       C  0.59470293  0.33223960  0.61074596     0.29300
C1258       C  0.56101344  0.31779980  0.61142680    -0.21500
C1259       C  0.53229954  0.33775167  0.62156033    -0.09500
C1260       C  0.53793089  0.37311070  0.62955920     0.29300
F1261       F  0.51139807  0.39373420  0.63954192    -0.20100
H1262       H  0.57524304  0.41393688  0.63706412     0.17700
H1263       H  0.55763545  0.29058296  0.60518074     0.17700
F1264       F  0.62203083  0.31152898  0.60288902    -0.20000
C1265       C  0.80894482  0.33741981  0.33202101    -0.21500
C1266       C  0.80556650  0.35908038  0.35851153    -0.09500
C1267       C  0.82991193  0.35615418  0.38312799     0.29300
C1268       C  0.85507623  0.32960353  0.38235940    -0.21500
C1269       C  0.85594131  0.30577220  0.35718529    -0.09500
C1270       C  0.83381624  0.31098932  0.33131561     0.29300
F1271       F  0.83465929  0.28895948  0.30625010    -0.20100
H1272       H  0.79069132  0.33947238  0.31265977     0.17700
H1273       H  0.87172422  0.32577763  0.40263017     0.17700
F1274       F  0.82700820  0.37629852  0.40929613    -0.20000
C1275       C  0.62081788  0.53109512  0.37783970    -0.21500
C1276       C  0.65659701  0.52702974  0.38422623    -0.09500
C1277       C  0.67606748  0.55648698  0.39365251     0.29300
C1278       C  0.66051946  0.58959005  0.39397281    -0.21500
C1279       C  0.62570762  0.59367803  0.38442347    -0.09500
C1280       C  0.60563555  0.56403961  0.37751691     0.29300
F1281       F  0.57178968  0.56716797  0.36856317    -0.20100
H1282       H  0.60489216  0.50901772  0.37086323     0.17700
H1283       H  0.67640891  0.61226597  0.39924365     0.17700
F1284       F  0.71043506  0.55369441  0.40078931    -0.20000
C1285       C  0.56236304  0.39132544  0.37721558    -0.21500
C1286       C  0.59203958  0.37052286  0.38101669    -0.09500
C1287       C  0.58786655  0.33455871  0.38627012     0.29300
C1288       C  0.55453857  0.31946803  0.38567493    -0.21500
C1289       C  0.52479906  0.34000200  0.38012106    -0.09500
C1290       C  0.52906631  0.37647687  0.37716011     0.29300
F1291       F  0.50135750  0.39776633  0.37223371    -0.20100
H1292       H  0.56508177  0.41906351  0.37303365     0.17700
H1293       H  0.55222143  0.29143251  0.38796332     0.17700
F1294       F  0.61613220  0.31355087  0.38914448    -0.20000
C1295       C  0.73103701  0.43830184  0.51648692    -0.21500
C1296       C  0.72794117  0.40653849  0.53260706    -0.09500
C1297       C  0.72408327  0.37555049  0.51495059     0.29300
C1298       C  0.72250991  0.37675190  0.48203083    -0.21500
C1299       C  0.72483464  0.40873192  0.46604273    -0.09500
C1300       C  0.72958760  0.43952351  0.48379272     0.29300
F1301       F  0.73270726  0.47111227  0.46975614    -0.20100
H1302       H  0.73435263  0.46261316  0.52921945     0.17700
H1303       H  0.71908949  0.35260462  0.46907618     0.17700
F1304       F  0.72132619  0.34414520  0.52934096    -0.20000
C1305       C  0.18600097  0.32848012  0.82983299    -0.21500
C1306       C  0.18856309  0.35374559  0.85380355    -0.09500
C1307       C  0.16172401  0.35595688  0.87625377     0.29300
C1308       C  0.13518061  0.33075448  0.87669958    -0.21500
C1309       C  0.13472911  0.30362334  0.85448016    -0.09500
C1310       C  0.15932390  0.30362972  0.83012432     0.29300
F1311       F  0.15962035  0.27749399  0.80847552    -0.20100
H1312       H  0.20611147  0.32642143  0.81208020     0.17700
H1313       H  0.11679123  0.33065837  0.89598647     0.17700
F1314       F  0.16321041  0.37992423  0.89977644    -0.20000
C1315       C  0.26675160  0.51956801  0.78174001    -0.21500
C1316       C  0.25782836  0.48423103  0.78275219    -0.09500
C1317       C  0.24768585  0.46701747  0.75499932     0.29300
C1318       C  0.24994598  0.48434328  0.72607873    -0.21500
C1319       C  0.26245525  0.51884050  0.72479777    -0.09500
C1320       C  0.26891687  0.53685472  0.75316849     0.29300
F1321       F  0.28012528  0.57043667  0.75328237    -0.20100
H1322       H  0.27487695  0.53306785  0.80296644     0.17700
H1323       H  0.24475482  0.46991313  0.70463966     0.17700
F1324       F  0.23927840  0.43261980  0.75548365    -0.20000
C1325       C  0.33439299  0.31326149  0.77196821    -0.21500
C1326       C  0.32117861  0.34740228  0.77224790    -0.09500
C1327       C  0.31727843  0.36539112  0.74362437     0.29300
C1328       C  0.33016650  0.35104396  0.71601379    -0.21500
C1329       C  0.34723923  0.31891140  0.71658463    -0.09500
C1330       C  0.34751900  0.29906098  0.74415721     0.29300
F1331       F  0.36163684  0.26667958  0.74437974    -0.20100
H1332       H  0.33688683  0.29859550  0.79354500     0.17700
H1333       H  0.32958775  0.36646947  0.69472757     0.17700
F1334       F  0.30357895  0.39800098  0.74256307    -0.20000
C1335       C  0.16432016  0.35659382  0.11593916    -0.21500
C1336       C  0.18977407  0.35771652  0.13969297    -0.09500
C1337       C  0.18608568  0.33602829  0.16601837     0.29300
C1338       C  0.15977594  0.31098615  0.16681149    -0.21500
C1339       C  0.13672560  0.30701385  0.14141172    -0.09500
C1340       C  0.13787052  0.33128404  0.11669671     0.29300
F1341       F  0.11607929  0.32811982  0.09168996    -0.20100
H1342       H  0.16674450  0.37308435  0.09545455     0.17700
H1343       H  0.15903210  0.29291829  0.18631211     0.17700
F1344       F  0.20951360  0.33730867  0.18995590    -0.20000
C1345       C  0.26115361  0.43029041  0.97982364    -0.21500
C1346       C  0.26866848  0.39931127  0.96345820    -0.09500
C1347       C  0.27453259  0.36856169  0.98065113     0.29300
C1348       C  0.27501964  0.36961148  0.01356497    -0.21500
C1349       C  0.26949714  0.40119018  0.02975486    -0.09500
C1350       C  0.26144592  0.43133774  0.01243767     0.29300
F1351       F  0.25431185  0.46219472  0.02683923    -0.20100
H1352       H  0.25566346  0.45424686  0.96736177     0.17700
H1353       H  0.28073593  0.34591482  0.02632917     0.17700
F1354       F  0.28095320  0.33782282  0.96583576    -0.20000
C1355       C  0.26833575  0.54034088  0.24089559    -0.21500
C1356       C  0.25864660  0.52265627  0.26843390    -0.09500
C1357       C  0.24346762  0.48926782  0.26573671     0.29300
C1358       C  0.24256963  0.47232312  0.23641465    -0.21500
C1359       C  0.25660755  0.48866090  0.20982571    -0.09500
C1360       C  0.26773971  0.52342100  0.21195049     0.29300
F1361       F  0.28135167  0.53981848  0.18652183    -0.20100
H1362       H  0.27926932  0.56639776  0.24204553     0.17700
H1363       H  0.23411864  0.44537564  0.23509294     0.17700
F1364       F  0.23279805  0.47171090  0.29161374    -0.20000
C1365       C  0.34304502  0.31793563  0.21946810    -0.21500
C1366       C  0.32172433  0.34761027  0.22001637    -0.09500
C1367       C  0.31004756  0.36098132  0.24897676     0.29300
C1368       C  0.32205778  0.34661298  0.27696745    -0.21500
C1369       C  0.34649560  0.31953191  0.27629693    -0.09500
C1370       C  0.35579987  0.30419370  0.24746565     0.29300
F1371       F  0.37917903  0.27764917  0.24632011    -0.20100
H1372       H  0.35226823  0.30726126  0.19738920     0.17700
H1373       H  0.31485493  0.35883981  0.29902071     0.17700
F1374       F  0.28898368  0.38939193  0.25023551    -0.20000
C1375       C  0.66664755  0.18067084  0.83511736    -0.21500
C1376       C  0.64223619  0.18276536  0.85958057    -0.09500
C1377       C  0.64305609  0.15729525  0.88335084     0.29300
C1378       C  0.66971769  0.13204227  0.88373009    -0.21500
C1379       C  0.69588824  0.13211499  0.86057678    -0.09500
C1380       C  0.69313416  0.15582930  0.83555386     0.29300
F1381       F  0.71724938  0.15626893  0.81223584    -0.20100
H1382       H  0.66643334  0.19972455  0.81638216     0.17700
H1383       H  0.67136722  0.11418429  0.90332078     0.17700
F1384       F  0.62024655  0.15877647  0.90765568    -0.20000
C1385       C  0.69448154  0.35337132  0.75224892    -0.21500
C1386       C  0.68185811  0.34326670  0.72259878    -0.09500
C1387       C  0.65617710  0.31714022  0.72066603     0.29300
C1388       C  0.64093229  0.30429810  0.74805961    -0.21500
C1389       C  0.65162017  0.31667283  0.77765941    -0.09500
C1390       C  0.67980939  0.33999581  0.77962932     0.29300
F1391       F  0.69088247  0.35256482  0.80781196    -0.20100
H1392       H  0.71435224  0.37315436  0.75433008     0.17700
H1393       H  0.61942131  0.28610528  0.74607654     0.17700
F1394       F  0.64331582  0.30659434  0.69244112    -0.20000
C1395       C  0.47875714  0.24758540  0.77569597    -0.21500
C1396       C  0.51499029  0.24468312  0.77890930    -0.09500
C1397       C  0.53544656  0.23921991  0.75198407     0.29300
C1398       C  0.52005243  0.24000381  0.72205042    -0.21500
C1399       C  0.48409588  0.24571840  0.71879957    -0.09500
C1400       C  0.46338943  0.24790249  0.74589891     0.29300
F1401       F  0.42877641  0.25418996  0.74344817    -0.20100
H1402       H  0.46269817  0.25261071  0.79614044     0.17700
H1403       H  0.53656642  0.23923339  0.70144119     0.17700
F1404       F  0.57064565  0.23717265  0.75446236    -0.20000
C1405       C  0.43276557  0.38177845  0.87813612    -0.21500
C1406       C  0.40334961  0.36048640  0.88192040    -0.09500
C1407       C  0.40808721  0.32461066  0.88717976     0.29300
C1408       C  0.44169481  0.31010492  0.88646022    -0.21500
C1409       C  0.47111534  0.33115152  0.88070867    -0.09500
C1410       C  0.46624688  0.36753209  0.87776490     0.29300
F1411       F  0.49350805  0.38933663  0.87242920    -0.20100
H1412       H  0.42967442  0.40946963  0.87392644     0.17700
H1413       H  0.44447418  0.28212455  0.88878294     0.17700
F1414       F  0.38013308  0.30313929  0.89011977    -0.20000
C1415       C  0.65665922  0.17147941  0.16468656    -0.21500
C1416       C  0.63562671  0.17812425  0.13831071    -0.09500
C1417       C  0.63719683  0.15505867  0.11251636     0.29300
C1418       C  0.66178494  0.12798502  0.11207344    -0.21500
C1419       C  0.68436543  0.12287009  0.13763786    -0.09500
C1420       C  0.68060810  0.14391471  0.16450004     0.29300
F1421       F  0.70260787  0.14008618  0.18925736    -0.20100
H1422       H  0.65595358  0.18891409  0.18477816     0.17700
H1423       H  0.66499694  0.11267438  0.09082060     0.17700
F1424       F  0.61777136  0.16097550  0.08639715    -0.20000
C1425       C  0.43384382  0.38335021  0.12070702    -0.21500
C1426       C  0.40446225  0.36327862  0.11295946    -0.09500
C1427       C  0.40915348  0.32825928  0.10383348     0.29300
C1428       C  0.44254315  0.31317260  0.10468206    -0.21500
C1429       C  0.47176856  0.33289353  0.11417899    -0.09500
C1430       C  0.46705634  0.36860511  0.12117919     0.29300
F1431       F  0.49406846  0.38893330  0.13084220    -0.20100
H1432       H  0.43086078  0.41032686  0.12793634     0.17700
H1433       H  0.44529615  0.28569935  0.09919684     0.17700
F1434       F  0.38125358  0.30790029  0.09666252    -0.20000
C1435       C  0.55716280  0.25643678  0.01494384    -0.21500
C1436       C  0.58841324  0.26097290  0.03173068    -0.09500
C1437       C  0.61969673  0.26512153  0.01484634     0.29300
C1438       C  0.61926571  0.26589087  0.98196517    -0.21500
C1439       C  0.58778235  0.26245105  0.96525361    -0.09500
C1440       C  0.55672167  0.25706812  0.98220997     0.29300
F1441       F  0.52566598  0.25271749  0.96734914    -0.20100
H1442       H  0.53269655  0.25278884  0.02717046     0.17700
H1443       H  0.64360239  0.26981662  0.96960946     0.17700
F1444       F  0.65060722  0.26934573  0.02995756    -0.20000
C1445       C  0.64090119  0.30501455  0.24819947    -0.21500
C1446       C  0.64924188  0.31988222  0.21911127    -0.09500
C1447       C  0.67154729  0.34885015  0.21800663     0.29300
C1448       C  0.68290703  0.36442818  0.24585937    -0.21500
C1449       C  0.67279171  0.35097837  0.27513699    -0.09500
C1450       C  0.65280173  0.32020219  0.27610119     0.29300
F1451       F  0.64208130  0.30661120  0.30385956    -0.20100
H1452       H  0.62363517  0.28268907  0.24933959     0.17700
H1453       H  0.69800722  0.38818841  0.24446493     0.17700
F1454       F  0.67931057  0.36427658  0.19021287    -0.20000
C1455       C  0.53691483  0.26661021  0.24550676    -0.21500
C1456       C  0.51952259  0.25102919  0.22011861    -0.09500
C1457       C  0.48755078  0.23405705  0.22524203     0.29300
C1458       C  0.47197325  0.23531797  0.25512166    -0.21500
C1459       C  0.48819114  0.25378044  0.27974166    -0.09500
C1460       C  0.52152868  0.26799851  0.27504273     0.29300
F1461       F  0.53787197  0.28598497  0.29839122    -0.20100
H1462       H  0.56125926  0.28026711  0.24186305     0.17700
H1463       H  0.44599969  0.22477491  0.25821225     0.17700
F1464       F  0.46985921  0.21960328  0.20080851    -0.20000
C1465       C  0.83555509  0.63104294  0.88276741    -0.21500
C1466       C  0.81000745  0.63109446  0.85902964    -0.09500
C1467       C  0.81410487  0.65360797  0.83330850     0.29300
C1468       C  0.84116014  0.67790544  0.83298189    -0.21500
C1469       C  0.86460952  0.68047175  0.85827952    -0.09500
C1470       C  0.86271805  0.65569102  0.88250430     0.29300
F1471       F  0.88475361  0.65756467  0.90742124    -0.20100
H1472       H  0.83292308  0.61385916  0.90275731     0.17700
H1473       H  0.84237539  0.69640772  0.81383109     0.17700
F1474       F  0.79075817  0.65349178  0.80927725    -0.20000
C1475       C  0.65795726  0.66981679  0.77655522    -0.21500
C1476       C  0.67955882  0.64039863  0.77403566    -0.09500
C1477       C  0.69016787  0.62892969  0.74411013     0.29300
C1478       C  0.67697224  0.64477483  0.71726249    -0.21500
C1479       C  0.65229842  0.67149505  0.71989424    -0.09500
C1480       C  0.64401130  0.68504538  0.74964552     0.29300
F1481       F  0.62081057  0.71149356  0.75274562    -0.20100
H1482       H  0.64954957  0.67925795  0.79933683     0.17700
H1483       H  0.68355568  0.63391617  0.69448219     0.17700
F1484       F  0.71128539  0.60088975  0.74066054    -0.20000
C1485       C  0.75419003  0.46963142  0.77593975    -0.21500
C1486       C  0.75544339  0.50590120  0.78005542    -0.09500
C1487       C  0.76223290  0.52720412  0.75399344     0.29300
C1488       C  0.76245388  0.51275278  0.72365058    -0.21500
C1489       C  0.75774842  0.47673343  0.71938809    -0.09500
C1490       C  0.75627355  0.45509617  0.74582077     0.29300
F1491       F  0.75299885  0.42014272  0.74215814    -0.20100
H1492       H  0.74890544  0.45279522  0.79575795     0.17700
H1493       H  0.76341390  0.52989642  0.70350533     0.17700
F1494       F  0.76485600  0.56226617  0.75763919    -0.20000
C1495       C  0.62531735  0.45859104  0.88019600    -0.21500
C1496       C  0.66191919  0.46174293  0.87978079    -0.09500
C1497       C  0.68216722  0.43135926  0.88351628     0.29300
C1498       C  0.66602754  0.39859745  0.88543642    -0.21500
C1499       C  0.62964499  0.39551767  0.88318680    -0.09500
C1500       C  0.60933891  0.42583222  0.88152692     0.29300
F1501       F  0.57407248  0.42360929  0.87967859    -0.20100
H1502       H  0.60891673  0.48139546  0.87774505     0.17700
H1503       H  0.68211271  0.37540438  0.88617318     0.17700
F1504       F  0.71750806  0.43287268  0.88300691    -0.20000
C1505       C  0.83409590  0.63228120  0.11711798    -0.21500
C1506       C  0.80660415  0.63391265  0.13895360    -0.09500
C1507       C  0.80771451  0.65978815  0.16251466     0.29300
C1508       C  0.83349477  0.68544035  0.16219861    -0.21500
C1509       C  0.85902076  0.68602711  0.13858900    -0.09500
C1510       C  0.86024455  0.65815473  0.11692003     0.29300
F1511       F  0.88476910  0.65752154  0.09399637    -0.20100
H1512       H  0.83397757  0.61251652  0.09885852     0.17700
H1513       H  0.83235970  0.70609694  0.17963390     0.17700
F1514       F  0.78269656  0.66146718  0.18501438    -0.20000
C1515       C  0.68250371  0.43119280  0.10746174    -0.21500
C1516       C  0.66137225  0.46067199  0.11275861    -0.09500
C1517       C  0.62485978  0.45592469  0.11374139     0.29300
C1518       C  0.61046276  0.42245941  0.11285507    -0.21500
C1519       C  0.63173771  0.39292588  0.11022785    -0.09500
C1520       C  0.66782506  0.39756224  0.10600293     0.29300
F1521       F  0.68921166  0.36951397  0.10353926    -0.20100
H1522       H  0.71057272  0.43390307  0.10631936     0.17700
H1523       H  0.58259241  0.41947795  0.11601734     0.17700
F1524       F  0.60292401  0.48333697  0.11776728    -0.20000
C1525       C  0.71640727  0.61043304  0.01503083    -0.21500
C1526       C  0.72338264  0.57946178  0.03151463    -0.09500
C1527       C  0.73068123  0.54891412  0.01415335     0.29300
C1528       C  0.73050858  0.54938969  0.98140026    -0.21500
C1529       C  0.72318529  0.58014666  0.96485506    -0.09500
C1530       C  0.71627458  0.61087821  0.98207084     0.29300
F1531       F  0.70878294  0.64122477  0.96721624    -0.20100
H1532       H  0.71062933  0.63432647  0.02764444     0.17700
H1533       H  0.73614569  0.52534383  0.96896148     0.17700
F1534       F  0.73799909  0.51830062  0.02864227    -0.20000
C1535       C  0.68179629  0.62134179  0.25286408    -0.21500
C1536       C  0.67654133  0.63739079  0.22357292    -0.09500
C1537       C  0.66187566  0.67105863  0.22276544     0.29300
C1538       C  0.64935711  0.68637761  0.25040362    -0.21500
C1539       C  0.65250951  0.66898397  0.27918150    -0.09500
C1540       C  0.67032361  0.63714381  0.28048659     0.29300
F1541       F  0.67300517  0.61938389  0.30793078    -0.20100
H1542       H  0.69270452  0.59542523  0.25434910     0.17700
H1543       H  0.63549251  0.71093664  0.24912787     0.17700
F1544       F  0.65695108  0.68793850  0.19515545    -0.20000
C1545       C  0.74967284  0.47239738  0.22405915    -0.21500
C1546       C  0.74799733  0.50842371  0.21861062    -0.09500
C1547       C  0.74854768  0.53147157  0.24435446     0.29300
C1548       C  0.74621598  0.51854520  0.27503163    -0.21500
C1549       C  0.74521287  0.48246457  0.28032996    -0.09500
C1550       C  0.74918250  0.45950245  0.25480216     0.29300
F1551       F  0.74907341  0.42453107  0.25948706    -0.20100
H1552       H  0.74883022  0.45422814  0.20450151     0.17700
H1553       H  0.74300098  0.53662562  0.29444370     0.17700
F1554       F  0.74779772  0.56642719  0.23962034    -0.20000
C1555       C  0.31651735  0.83131409  0.83268960    -0.21500
C1556       C  0.31448646  0.85504613  0.85774064    -0.09500
C1557       C  0.34079104  0.85490036  0.88087252     0.29300
C1558       C  0.36591198  0.82819863  0.88093010    -0.21500
C1559       C  0.36492198  0.80185131  0.85782983    -0.09500
C1560       C  0.34137746  0.80502662  0.83263133     0.29300
F1561       F  0.34045626  0.78093321  0.80914306    -0.20100
H1562       H  0.29702178  0.83145009  0.81422801     0.17700
H1563       H  0.38403376  0.82643764  0.90039330     0.17700
F1564       F  0.34008715  0.87813773  0.90501489    -0.20000
C1565       C  0.46364626  0.74008423  0.75272820    -0.21500
C1566       C  0.48504071  0.73974900  0.77947116    -0.09500
C1567       C  0.52124228  0.74327953  0.77576315     0.29300
C1568       C  0.53583739  0.74418082  0.74556542    -0.21500
C1569       C  0.51460787  0.74067957  0.71883438    -0.09500
C1570       C  0.47824365  0.73999014  0.72258278     0.29300
F1571       F  0.45706967  0.73586184  0.69724819    -0.20100
H1572       H  0.43575893  0.73720397  0.75523613     0.17700
H1573       H  0.56389439  0.74425539  0.74310162     0.17700
F1574       F  0.54260496  0.74248257  0.80119568    -0.20000
C1575       C  0.36495734  0.68761607  0.74329278    -0.21500
C1576       C  0.34943038  0.67656076  0.77146509    -0.09500
C1577       C  0.31658883  0.66008258  0.76990985     0.29300
C1578       C  0.30181996  0.65158855  0.74055558    -0.21500
C1579       C  0.31953616  0.65940334  0.71257820    -0.09500
C1580       C  0.35029320  0.67913540  0.71422144     0.29300
F1581       F  0.36828329  0.68670653  0.68764844    -0.20100
H1582       H  0.38993003  0.70065931  0.74359907     0.17700
H1583       H  0.27831323  0.63595333  0.73974388     0.17700
F1584       F  0.30053903  0.64898726  0.79644534    -0.20000
C1585       C  0.53265648  0.61367554  0.86036001    -0.21500
C1586       C  0.52683804  0.64516017  0.87652500    -0.09500
C1587       C  0.55446249  0.66002514  0.89383599     0.29300
C1588       C  0.58767704  0.64451895  0.89334318    -0.21500
C1589       C  0.59390693  0.61436843  0.87517543    -0.09500
C1590       C  0.56566116  0.59860442  0.85940476     0.29300
F1591       F  0.57010185  0.56924721  0.84189465    -0.20100
H1592       H  0.51197308  0.60153218  0.84681187     0.17700
H1593       H  0.60890104  0.65713690  0.90579309     0.17700
F1594       F  0.54959179  0.68980871  0.91060324    -0.20000
C1595       C  0.39114959  0.55719512  0.87225147    -0.21500
C1596       C  0.37058456  0.58652747  0.87852652    -0.09500
C1597       C  0.33612739  0.58183110  0.88895948     0.29300
C1598       C  0.32181507  0.54821770  0.89071234    -0.21500
C1599       C  0.34184346  0.51880483  0.88270269    -0.09500
C1600       C  0.37724842  0.52366397  0.87468272     0.29300
F1601       F  0.39797244  0.49629133  0.86687723    -0.20100
H1602       H  0.41781589  0.56031611  0.86437251     0.17700
H1603       H  0.29458929  0.54534279  0.89688510     0.17700
F1604       F  0.31545896  0.60977721  0.89496347    -0.20000
C1605       C  0.36290872  0.83146299  0.11784991    -0.21500
C1606       C  0.36172937  0.80473092  0.14034951    -0.09500
C1607       C  0.33750328  0.80741013  0.16508403     0.29300
C1608       C  0.31235647  0.83360042  0.16505353    -0.21500
C1609       C  0.31085942  0.85804562  0.14066408    -0.09500
C1610       C  0.33767446  0.85813756  0.11802813     0.29300
F1611       F  0.33754033  0.88179859  0.09441433    -0.20100
H1612       H  0.38143788  0.83013448  0.09871698     0.17700
H1613       H  0.29255648  0.83340677  0.18318203     0.17700
F1614       F  0.33649832  0.78312805  0.18822107    -0.20000
C1615       C  0.55229635  0.66316529  0.10583656    -0.21500
C1616       C  0.52435922  0.64686442  0.12138213    -0.09500
C1617       C  0.53000378  0.61373275  0.13481542     0.29300
C1618       C  0.56300569  0.59847183  0.13419860    -0.21500
C1619       C  0.59135308  0.61540233  0.12005492    -0.09500
C1620       C  0.58544078  0.64748633  0.10487207     0.29300
F1621       F  0.61208465  0.66482033  0.09094388    -0.20100
H1622       H  0.54875486  0.68855964  0.09525665     0.17700
H1623       H  0.56669238  0.57379050  0.14605555     0.17700
F1624       F  0.50429959  0.59691044  0.15060753    -0.20000
C1625       C  0.34021321  0.58307186  0.10232064    -0.21500
C1626       C  0.37141453  0.58863754  0.11898707    -0.09500
C1627       C  0.38962364  0.55980740  0.13089561     0.29300
C1628       C  0.37593310  0.52635796  0.12770058    -0.21500
C1629       C  0.34335118  0.52089331  0.11335681    -0.09500
C1630       C  0.32596679  0.54944412  0.09982782     0.29300
F1631       F  0.29472614  0.54508000  0.08532045    -0.20100
H1632       H  0.32581142  0.60496405  0.09292148     0.17700
H1633       H  0.38989958  0.50496534  0.13847522     0.17700
F1634       F  0.42005573  0.56405233  0.14681997    -0.20000
C1635       C  0.37870724  0.71528829  0.01528336    -0.21500
C1636       C  0.41023284  0.71433570  0.03225083    -0.09500
C1637       C  0.44171064  0.71253172  0.01520921     0.29300
C1638       C  0.44151227  0.71194442  0.98239560    -0.21500
C1639       C  0.41013769  0.71308723  0.96532007    -0.09500
C1640       C  0.37854945  0.71468245  0.98223287     0.29300
F1641       F  0.34747638  0.71575357  0.96699409    -0.20100
H1642       H  0.35405849  0.71656892  0.02759245     0.17700
H1643       H  0.46630368  0.71052354  0.97032508     0.17700
F1644       F  0.47300615  0.71112828  0.03008783    -0.20000
C1645       C  0.47059373  0.75512916  0.24171807    -0.21500
C1646       C  0.48925148  0.74231527  0.21579495    -0.09500
C1647       C  0.52443120  0.73313505  0.21947339     0.29300
C1648       C  0.53971430  0.73369508  0.24922154    -0.21500
C1649       C  0.52006829  0.74310383  0.27566481    -0.09500
C1650       C  0.48587804  0.75534152  0.27167556     0.29300
F1651       F  0.46607247  0.76343556  0.29705562    -0.20100
H1652       H  0.44317403  0.76134416  0.23937280     0.17700
H1653       H  0.56589111  0.72357554  0.25202193     0.17700
F1654       F  0.54278945  0.72000160  0.19486544    -0.20000
C1655       C  0.29954066  0.65260863  0.25417512    -0.21500
C1656       C  0.31584548  0.66191919  0.28254623    -0.09500
C1657       C  0.34526951  0.68366418  0.28183347     0.29300
C1658       C  0.36022423  0.69291356  0.25315833    -0.21500
C1659       C  0.34618661  0.68050013  0.22467057    -0.09500
C1660       C  0.31444471  0.66196138  0.22531851     0.29300
F1661       F  0.29992925  0.64955139  0.19839638    -0.20100
H1662       H  0.27735310  0.63508544  0.25431568     0.17700
H1663       H  0.38434276  0.70766532  0.25336293     0.17700
F1664       F  0.36185922  0.69254291  0.30892967    -0.20000
loop_ 
_geom_bond_atom_site_label_1 
_geom_bond_atom_site_label_2 
_geom_bond_distance 
_geom_bond_site_symmetry_2 
_ccdc_geom_bond_type 
O1          Cr19   2.031       .  S
O1            C9   1.271       .  A
O2          Cr19   1.954       .  S
O2            C3   1.255       .  A
C3            O4   1.271       .  A
C3         C1606   1.485       .  S
O4          Cr20   2.039       .  S
O5          Cr20   1.995       .  S
O5            C6   1.259       .  A
C6            O7   1.260       .  A
C6         C1646   1.466       .  S
O7          Cr21   1.993       .  S
O8          Cr21   1.969       .  S
O8            C9   1.260       .  A
C9         C1659   1.484       .  S
O10         Cr19   1.978       .  S
O10          C18   1.258       .  A
O11         Cr19   2.027       .  S
O11          C12   1.271       .  A
C12          O13   1.260       .  A
C12        C1636   1.494       .  S
O13         Cr20   1.969       .  S
O14         Cr20   2.047       .  S
O14          C15   1.277       .  A
C15          O16   1.260       .  A
C15        C1616   1.491       .  S
O16         Cr21   1.963       .  S
O17         Cr21   1.997       .  S
O17          C18   1.263       .  A
C18        C1626   1.474       .  S
Cr19         O22   1.770       .  S
Cr20         O22   1.772       .  S
Cr21         O22   1.759       .  S
O23         Cr41   1.969       .  S
O23          C31   1.259       .  A
O24         Cr41   2.003       .  S
O24          C25   1.263       .  A
C25          O26   1.262       .  A
C25        C1566   1.474       .  S
O26         Cr42   1.999       .  S
O27         Cr42   2.029       .  S
O27          C28   1.268       .  A
C28          O29   1.255       .  A
C28        C1559   1.478       .  S
O29         Cr43   1.952       .  S
O30         Cr43   2.035       .  S
O30          C31   1.271       .  A
C31        C1576   1.490       .  S
O32         Cr41   2.007       .  S
O32          C40   1.266       .  A
O33         Cr41   1.963       .  S
O33          C34   1.259       .  A
C34          O35   1.273       .  A
C34        C1586   1.485       .  S
O35         Cr42   2.036       .  S
O36         Cr42   1.974       .  S
O36          C37   1.263       .  A
C37          O38   1.272       .  A
C37        C1639   1.495       .  S
O38         Cr43   2.028       .  S
O39         Cr43   1.973       .  S
O39          C40   1.257       .  A
C40        C1596   1.475       .  S
Cr41         O44   1.760       .  S
Cr42         O44   1.777       .  S
Cr43         O44   1.770       .  S
O45         Cr63   2.019       .  S
O45          C53   1.270       .  A
O46         Cr63   1.964       .  S
O46          C47   1.256       .  A
C47          O48   1.267       .  A
C47        C1506   1.487       .  S
O48         Cr64   2.030       .  S
O49         Cr64   2.001       .  S
O49          C50   1.260       .  A
C50          O51   1.260       .  A
C50        C1546   1.472       .  S
O51         Cr65   2.001       .  S
O52         Cr65   1.964       .  S
O52          C53   1.261       .  A
C53        C1536   1.480       .  S
O54         Cr63   1.990       .  S
O54          C62   1.260       .  A
O55         Cr63   2.021       .  S
O55          C56   1.272       .  A
C56          O57   1.262       .  A
C56        C1526   1.488       .  S
O57         Cr64   1.965       .  S
O58         Cr64   2.045       .  S
O58          C59   1.276       .  A
C59          O60   1.261       .  A
C59        C1516   1.493       .  S
O60         Cr65   1.964       .  S
O61         Cr65   2.001       .  S
O61          C62   1.263       .  A
C62        C1619   1.488       .  S
Cr63         O66   1.771       .  S
Cr64         O66   1.776       .  S
Cr65         O66   1.762       .  S
O67         Cr85   1.967       .  S
O67          C75   1.259       .  A
O68         Cr85   2.003       .  S
O68          C69   1.262       .  A
C69          O70   1.259       .  A
C69        C1486   1.471       .  S
O70         Cr86   1.995       .  S
O71         Cr86   2.021       .  S
O71          C72   1.266       .  A
C72          O73   1.257       .  A
C72        C1466   1.479       .  S
O73         Cr87   1.968       .  S
O74         Cr87   2.009       .  S
O74          C75   1.267       .  A
C75        C1476   1.471       .  S
O76         Cr85   2.001       .  S
O76          C84   1.265       .  A
O77         Cr85   1.966       .  S
O77          C78   1.260       .  A
C78          O79   1.273       .  A
C78        C1496   1.488       .  S
O79         Cr86   2.033       .  S
O80         Cr86   1.969       .  S
O80          C81   1.262       .  A
C81          O82   1.269       .  A
C81        C1529   1.486       .  S
O82         Cr87   2.015       .  S
O83         Cr87   1.989       .  S
O83          C84   1.262       .  A
C84        C1589   1.486       .  S
Cr85         O88   1.760       .  S
Cr86         O88   1.772       .  S
Cr87         O88   1.770       .  S
O89        Cr107   2.013       .  S
O89          C97   1.266       .  A
O90        Cr107   1.979       .  S
O90          C91   1.258       .  A
C91          O92   1.266       .  A
C91        C1416   1.484       .  S
O92        Cr108   2.024       .  S
O93        Cr108   1.996       .  S
O93          C94   1.262       .  A
C94          O95   1.262       .  A
C94        C1456   1.468       .  S
O95        Cr109   1.994       .  S
O96        Cr109   1.961       .  S
O96          C97   1.256       .  A
C97        C1446   1.464       .  S
O98        Cr107   1.991       .  S
O98         C106   1.262       .  A
O99        Cr107   2.018       .  S
O99         C100   1.272       .  A
C100        O101   1.263       .  A
C100       C1436   1.483       .  S
O101       Cr108   1.964       .  S
O102       Cr108   2.037       .  S
O102        C103   1.272       .  A
C103        O104   1.259       .  A
C103       C1429   1.490       .  S
O104       Cr109   1.966       .  S
O105       Cr109   1.997       .  S
O105        C106   1.263       .  A
C106       C1519   1.480       .  S
Cr107       O110   1.774       .  S
Cr108       O110   1.778       .  S
Cr109       O110   1.758       .  S
O111       Cr129   1.968       .  S
O111        C119   1.259       .  A
O112       Cr129   2.000       .  S
O112        C113   1.262       .  A
C113        O114   1.261       .  A
C113       C1396   1.471       .  S
O114       Cr130   1.997       .  S
O115       Cr130   2.036       .  S
O115        C116   1.269       .  A
C116        O117   1.255       .  A
C116       C1376   1.484       .  S
O117       Cr131   1.961       .  S
O118       Cr131   2.013       .  S
O118        C119   1.268       .  A
C119       C1389   1.471       .  S
O120       Cr129   2.004       .  S
O120        C128   1.264       .  A
O121       Cr129   1.965       .  S
O121        C122   1.260       .  A
C122        O123   1.275       .  A
C122       C1409   1.492       .  S
O123       Cr130   2.041       .  S
O124       Cr130   1.964       .  S
O124        C125   1.261       .  A
C125        O126   1.270       .  A
C125       C1439   1.484       .  S
O126       Cr131   2.018       .  S
O127       Cr131   1.980       .  S
O127        C128   1.259       .  A
C128       C1499   1.473       .  S
Cr129       O132   1.760       .  S
Cr130       O132   1.773       .  S
Cr131       O132   1.769       .  S
O133       Cr151   2.010       .  S
O133        C141   1.267       .  A
O134       Cr151   1.963       .  S
O134        C135   1.256       .  A
C135        O136   1.265       .  A
C135       C1336   1.474       .  S
O136       Cr152   2.018       .  S
O137       Cr152   1.993       .  S
O137        C138   1.259       .  A
C138        O139   1.261       .  A
C138       C1359   1.466       .  S
O139       Cr153   1.995       .  S
O140       Cr153   1.958       .  S
O140        C141   1.258       .  A
C141       C1366   1.465       .  S
O142       Cr151   1.990       .  S
O142        C150   1.262       .  A
O143       Cr151   2.017       .  S
O143        C144   1.270       .  A
C144        O145   1.260       .  A
C144       C1349   1.479       .  S
O145       Cr152   1.955       .  S
O146       Cr152   2.031       .  S
O146        C147   1.272       .  A
C147        O148   1.259       .  A
C147       C1629   1.478       .  S
O148       Cr153   1.959       .  S
O149       Cr153   1.997       .  S
O149        C150   1.263       .  A
C150       C1426   1.481       .  S
Cr151       O154   1.769       .  S
Cr152       O154   1.773       .  S
Cr153       O154   1.755       .  S
O155       Cr173   1.945       .  S
O155        C163   1.256       .  A
O156       Cr173   1.995       .  S
O156        C157   1.261       .  A
C157        O158   1.259       .  A
C157       C1316   1.464       .  S
O158       Cr174   1.993       .  S
O159       Cr174   2.021       .  S
O159        C160   1.265       .  A
C160        O161   1.256       .  A
C160       C1306   1.482       .  S
O161       Cr175   1.969       .  S
O162       Cr175   2.014       .  S
O162        C163   1.269       .  A
C163       C1326   1.469       .  S
O164       Cr173   1.994       .  S
O164        C172   1.261       .  A
O165       Cr173   1.959       .  S
O165        C166   1.258       .  A
C166        O167   1.275       .  A
C166       C1599   1.485       .  S
O167       Cr174   2.040       .  S
O168       Cr174   1.952       .  S
O168        C169   1.261       .  A
C169        O170   1.272       .  A
C169       C1346   1.479       .  S
O170       Cr175   2.022       .  S
O171       Cr175   1.990       .  S
O171        C172   1.261       .  A
C172       C1406   1.479       .  S
Cr173       O176   1.756       .  S
Cr174       O176   1.771       .  S
Cr175       O176   1.770       .  S
O177       Cr195   2.015       .  S
O177        C185   1.268       .  A
O178       Cr195   1.961       .  S
O178        C179   1.255       .  A
C179        O180   1.266       .  A
C179       C1266   1.476       .  S
O180       Cr196   2.024       .  S
O181       Cr196   1.993       .  S
O181        C182   1.260       .  A
C182        O183   1.264       .  A
C182       C1549   1.472       .  S
O183       Cr197   2.009       .  S
O184       Cr197   1.964       .  S
O184        C185   1.259       .  A
C185       C1449   1.474       .  S
O186       Cr195   1.981       .  S
O186        C194   1.260       .  A
O187       Cr195   2.024       .  S
O187        C188   1.272       .  A
C188        O189   1.261       .  A
C188       C1299   1.487       .  S
O189       Cr196   1.963       .  S
O190       Cr196   2.034       .  S
O190        C191   1.273       .  A
C191        O192   1.258       .  A
C191       C1276   1.483       .  S
O192       Cr197   1.957       .  S
O193       Cr197   2.006       .  S
O193        C194   1.265       .  A
C194       C1286   1.477       .  S
Cr195       O198   1.767       .  S
Cr196       O198   1.774       .  S
Cr197       O198   1.759       .  S
O199       Cr217   1.969       .  S
O199        C207   1.259       .  A
O200       Cr217   2.002       .  S
O200        C201   1.262       .  A
C201        O202   1.260       .  A
C201       C1489   1.470       .  S
O202       Cr218   1.994       .  S
O203       Cr218   2.033       .  S
O203        C204   1.269       .  A
C204        O205   1.256       .  A
C204       C1236   1.481       .  S
O205       Cr219   1.961       .  S
O206       Cr219   2.017       .  S
O206        C207   1.268       .  A
C207       C1386   1.474       .  S
O208       Cr217   2.004       .  S
O208        C216   1.265       .  A
O209       Cr217   1.959       .  S
O209        C210   1.258       .  A
C210        O211   1.275       .  A
C210       C1249   1.493       .  S
O211       Cr218   2.046       .  S
O212       Cr218   1.966       .  S
O212        C213   1.262       .  A
C213        O214   1.270       .  A
C213       C1296   1.487       .  S
O214       Cr219   2.021       .  S
O215       Cr219   1.986       .  S
O215        C216   1.262       .  A
C216       C1256   1.481       .  S
Cr217       O220   1.757       .  S
Cr218       O220   1.778       .  S
Cr219       O220   1.771       .  S
O221       Cr239   2.015       .  S
O221        C229   1.266       .  A
O222       Cr239   1.957       .  S
O222        C223   1.256       .  A
C223        O224   1.267       .  A
C223       C1209   1.471       .  S
O224       Cr240   2.024       .  S
O225       Cr240   1.994       .  S
O225        C226   1.261       .  A
C226        O227   1.262       .  A
C226       C1649   1.466       .  S
O227       Cr241   1.992       .  S
O228       Cr241   1.967       .  S
O228        C229   1.256       .  A
C229       C1539   1.464       .  S
O230       Cr239   1.977       .  S
O230        C238   1.260       .  A
O231       Cr239   2.014       .  S
O231        C232   1.269       .  A
C232        O233   1.261       .  A
C232       C1229   1.485       .  S
O233       Cr240   1.972       .  S
O234       Cr240   2.025       .  S
O234        C235   1.272       .  A
C235        O236   1.258       .  A
C235       C1216   1.482       .  S
O236       Cr241   1.961       .  S
O237       Cr241   1.998       .  S
O237        C238   1.265       .  A
C238       C1279   1.470       .  S
Cr239       O242   1.766       .  S
Cr240       O242   1.772       .  S
Cr241       O242   1.755       .  S
O243       Cr261   1.965       .  S
O243        C251   1.259       .  A
O244       Cr261   2.002       .  S
O244        C245   1.261       .  A
C245        O246   1.261       .  A
C245       C1569   1.475       .  S
O246       Cr262   2.003       .  S
O247       Cr262   2.025       .  S
O247        C248   1.266       .  A
C248        O249   1.254       .  A
C248       C1186   1.475       .  S
O249       Cr263   1.955       .  S
O250       Cr263   2.008       .  S
O250        C251   1.267       .  A
C251       C1479   1.462       .  S
O252       Cr261   2.004       .  S
O252        C260   1.265       .  A
O253       Cr261   1.960       .  S
O253        C254   1.260       .  A
C254        O255   1.273       .  A
C254       C1196   1.480       .  S
O255       Cr262   2.026       .  S
O256       Cr262   1.968       .  S
O256        C257   1.261       .  A
C257        O258   1.270       .  A
C257       C1226   1.485       .  S
O258       Cr263   2.016       .  S
O259       Cr263   1.986       .  S
O259        C260   1.261       .  A
C260       C1246   1.481       .  S
Cr261       O264   1.759       .  S
Cr262       O264   1.774       .  S
Cr263       O264   1.770       .  S
O265       Cr283   2.002       .  S
O265        C273   1.264       .  A
O266       Cr283   1.985       .  S
O266        C267   1.257       .  A
C267        O268   1.259       .  A
C267       C1159   1.466       .  S
O268       Cr284   1.997       .  S
O269       Cr284   2.026       .  S
O269        C270   1.270       .  A
C270        O271   1.258       .  A
C270       C1356   1.482       .  S
O271       Cr285   1.955       .  S
O272       Cr285   1.992       .  S
O272        C273   1.261       .  A
C273       C1656   1.467       .  S
O274       Cr283   2.002       .  S
O274        C282   1.265       .  A
O275       Cr283   1.961       .  S
O275        C276   1.262       .  A
C276        O277   1.274       .  A
C276       C1176   1.486       .  S
O277       Cr284   2.030       .  S
O278       Cr284   2.000       .  S
O278        C279   1.263       .  A
C279        O280   1.262       .  A
C279       C1169   1.485       .  S
O280       Cr285   1.990       .  S
O281       Cr285   1.979       .  S
O281        C282   1.261       .  A
C282       C1219   1.481       .  S
Cr283       O286   1.769       .  S
Cr284       O286   1.782       .  S
Cr285       O286   1.761       .  S
O287       Cr305   1.988       .  S
O287        C295   1.259       .  A
O288       Cr305   1.956       .  S
O288        C289   1.258       .  A
C289        O290   1.271       .  A
C289       C1319   1.480       .  S
O290       Cr306   2.028       .  S
O291       Cr306   2.002       .  S
O291        C292   1.262       .  A
C292        O293   1.258       .  A
C292       C1139   1.471       .  S
O293       Cr307   1.988       .  S
O294       Cr307   2.012       .  S
O294        C295   1.265       .  A
C295       C1579   1.473       .  S
O296       Cr305   1.976       .  S
O296        C304   1.261       .  A
O297       Cr305   1.984       .  S
O297        C298   1.260       .  A
C298        O299   1.265       .  A
C298       C1146   1.491       .  S
O299       Cr306   2.012       .  S
O300       Cr306   2.023       .  S
O300        C301   1.271       .  A
C301        O302   1.264       .  A
C301       C1179   1.485       .  S
O302       Cr307   1.970       .  S
O303       Cr307   2.005       .  S
O303        C304   1.266       .  A
C304       C1199   1.479       .  S
Cr305       O308   1.762       .  S
Cr306       O308   1.780       .  S
Cr307       O308   1.770       .  S
O309       Cr327   2.015       .  S
O309        C317   1.269       .  A
O310       Cr327   1.965       .  S
O310        C311   1.256       .  A
C311        O312   1.269       .  A
C311       C1119   1.490       .  S
O312       Cr328   2.034       .  S
O313       Cr328   1.999       .  S
O313        C314   1.260       .  A
C314        O315   1.260       .  A
C314       C1459   1.471       .  S
O315       Cr329   1.993       .  S
O316       Cr329   1.957       .  S
O316        C317   1.258       .  A
C317       C1369   1.461       .  S
O318       Cr327   1.991       .  S
O318        C326   1.260       .  A
O319       Cr327   2.018       .  S
O319        C320   1.272       .  A
C320        O321   1.258       .  A
C320       C1126   1.483       .  S
O321       Cr328   1.956       .  S
O322       Cr328   2.042       .  S
O322        C323   1.277       .  A
C323        O324   1.261       .  A
C323       C1289   1.489       .  S
O324       Cr329   1.963       .  S
O325       Cr329   2.000       .  S
O325        C326   1.262       .  A
C326       C1166   1.483       .  S
Cr327       O330   1.772       .  S
Cr328       O330   1.775       .  S
Cr329       O330   1.758       .  S
O331       Cr349   1.974       .  S
O331        C339   1.258       .  A
O332       Cr349   1.997       .  S
O332        C333   1.261       .  A
C333        O334   1.262       .  A
C333       C1399   1.473       .  S
O334       Cr350   2.001       .  S
O335       Cr350   2.030       .  S
O335        C336   1.268       .  A
C336        O337   1.258       .  A
C336       C1106   1.480       .  S
O337       Cr351   1.970       .  S
O338       Cr351   1.994       .  S
O338        C339   1.261       .  A
C339       C1329   1.455       .  S
O340       Cr349   2.007       .  S
O340        C348   1.267       .  A
O341       Cr349   1.969       .  S
O341        C342   1.261       .  A
C342        O343   1.273       .  A
C342       C1259   1.492       .  S
O343       Cr350   2.033       .  S
O344       Cr350   1.981       .  S
O344        C345   1.264       .  A
C345        O346   1.265       .  A
C345       C1129   1.480       .  S
O346       Cr351   1.996       .  S
O347       Cr351   1.993       .  S
O347        C348   1.263       .  A
C348       C1149   1.489       .  S
Cr349       O352   1.759       .  S
Cr350       O352   1.777       .  S
Cr351       O352   1.773       .  S
O353       Cr371   2.018       .  S
O353        C361   1.269       .  A
O354       Cr371   1.969       .  S
O354        C355   1.257       .  A
C355        O356   1.265       .  A
C355       C1239   1.480       .  S
O356       Cr372   2.023       .  S
O357       Cr372   2.002       .  S
O357        C358   1.263       .  A
C358        O359   1.260       .  A
C358       C1086   1.467       .  S
O359       Cr373   1.992       .  S
O360       Cr373   1.966       .  S
O360        C361   1.258       .  A
C361       C1096   1.475       .  S
O362       Cr371   1.987       .  S
O362        C370   1.260       .  A
O363       Cr371   2.023       .  S
O363        C364   1.272       .  A
C364        O365   1.264       .  A
C364       C1076   1.489       .  S
O365       Cr372   1.969       .  S
O366       Cr372   2.032       .  S
O366        C367   1.272       .  A
C367        O368   1.260       .  A
C367       C1056   1.485   1_655  S
O368       Cr373   1.966       .  S
O369       Cr373   1.992       .  S
O369        C370   1.262       .  A
C370       C1066   1.475       .  S
Cr371       O374   1.771       .  S
Cr372       O374   1.774       .  S
Cr373       O374   1.761       .  S
O375       Cr393   1.971       .  S
O375        C383   1.260       .  A
O376       Cr393   1.986       .  S
O376        C377   1.259       .  A
C377        O378   1.263       .  A
C377       C1026   1.476       .  S
O378       Cr394   2.008       .  S
O379       Cr394   2.021       .  S
O379        C380   1.266       .  A
C380        O381   1.256       .  A
C380       C1269   1.474       .  S
O381       Cr395   1.963       .  S
O382       Cr395   2.028       .  S
O382        C383   1.269       .  A
C383       C1016   1.481       .  S
O384       Cr393   1.987       .  S
O384        C392   1.261       .  A
O385       Cr393   1.975       .  S
O385        C386   1.262       .  A
C386        O387   1.273       .  A
C386       C1039   1.488   1_655  S
O387       Cr394   2.024       .  S
O388       Cr394   1.968       .  S
O388        C389   1.261       .  A
C389        O390   1.271       .  A
C389       C1079   1.490       .  S
O390       Cr395   2.022       .  S
O391       Cr395   1.984       .  S
O391        C392   1.259       .  A
C392       C1046   1.470       .  S
Cr393       O396   1.760       .  S
Cr394       O396   1.775       .  S
Cr395       O396   1.775       .  S
O397       Cr415   2.008       .  S
O397        C405   1.266       .  A
O398       Cr415   1.969       .  S
O398        C399   1.256       .  A
C399        O400   1.266       .  A
C399       C1136   1.484       .  S
O400       Cr416   2.026       .  S
O401       Cr416   1.994       .  S
O401        C402   1.261       .  A
C402        O403   1.264       .  A
C402        C999   1.471       .  S
O403       Cr417   2.005       .  S
O404       Cr417   1.964       .  S
O404        C405   1.258       .  A
C405       C1006   1.472       .  S
O406       Cr415   1.983       .  S
O406        C414   1.261       .  A
O407       Cr415   2.022       .  S
O407        C408   1.271       .  A
C408        O409   1.263       .  A
C408        C986   1.488       .  S
O409       Cr416   1.966       .  S
O410       Cr416   2.033       .  S
O410        C411   1.272       .  A
C411        O412   1.260       .  A
C411        C969   1.490   1_455  S
O412       Cr417   1.969       .  S
O413       Cr417   2.010       .  S
O413        C414   1.266       .  A
C414        C979   1.482       .  S
Cr415       O418   1.771       .  S
Cr416       O418   1.774       .  S
Cr417       O418   1.762       .  S
O419       Cr437   1.967       .  S
O419        C427   1.259       .  A
O420       Cr437   2.002       .  S
O420        C421   1.262       .  A
C421        O422   1.259       .  A
C421        C926   1.471       .  S
O422       Cr438   1.996       .  S
O423       Cr438   2.015       .  S
O423        C424   1.266       .  A
C424        O425   1.258       .  A
C424       C1156   1.481       .  S
O425       Cr439   1.972       .  S
O426       Cr439   2.015       .  S
O426        C427   1.267       .  A
C427        C936   1.466       .  S
O428       Cr437   2.001       .  S
O428        C436   1.265       .  A
O429       Cr437   1.963       .  S
O429        C430   1.259       .  A
C430        O431   1.273       .  A
C430        C946   1.487   1_455  S
O431       Cr438   2.030       .  S
O432       Cr438   1.967       .  S
O432        C433   1.261       .  A
C433        O434   1.270       .  A
C433        C989   1.488       .  S
O434       Cr439   2.020       .  S
O435       Cr439   1.994       .  S
O435        C436   1.263       .  A
C436        C959   1.486       .  S
Cr437       O440   1.758       .  S
Cr438       O440   1.773       .  S
Cr439       O440   1.773       .  S
O441       Cr459   2.006       .  S
O441        C449   1.266       .  A
O442       Cr459   1.966       .  S
O442        C443   1.257       .  A
C443        O444   1.265       .  A
C443       C1189   1.476       .  S
O444       Cr460   2.021       .  S
O445       Cr460   1.995       .  S
O445        C446   1.261       .  A
C446        O447   1.263       .  A
C446        C916   1.470       .  S
O447       Cr461   2.002       .  S
O448       Cr461   1.963       .  S
O448        C449   1.259       .  A
C449        C906   1.466       .  S
O450       Cr459   1.984       .  S
O450        C458   1.260       .  A
O451       Cr459   2.008       .  S
O451        C452   1.269       .  A
C452        O453   1.260       .  A
C452        C896   1.476       .  S
O453       Cr460   1.960       .  S
O454       Cr460   2.030       .  S
O454        C455   1.272       .  A
C455        O456   1.259       .  A
C455       C1069   1.487   1_565  S
O456       Cr461   1.963       .  S
O457       Cr461   2.003       .  S
O457        C458   1.264       .  A
C458        C966   1.477       .  S
Cr459       O462   1.770       .  S
Cr460       O462   1.773       .  S
Cr461       O462   1.757       .  S
O463       Cr481   1.958       .  S
O463        C471   1.257       .  A
O464       Cr481   1.993       .  S
O464        C465   1.263       .  A
C465        O466   1.260       .  A
C465        C886   1.461       .  S
O466       Cr482   1.990       .  S
O467       Cr482   2.011       .  S
O467        C468   1.261       .  A
C468        O469   1.256       .  A
C468       C1206   1.472       .  S
O469       Cr483   1.968       .  S
O470       Cr483   2.019       .  S
O470        C471   1.269       .  A
C471        C876   1.474       .  S
O472       Cr481   1.996       .  S
O472        C480   1.263       .  A
O473       Cr481   1.967       .  S
O473        C474   1.259       .  A
C474        O475   1.269       .  A
C474       C1049   1.481   1_565  S
O475       Cr482   2.020       .  S
O476       Cr482   1.951       .  S
O476        C477   1.260       .  A
C477        O478   1.272       .  A
C477        C899   1.476       .  S
O478       Cr483   2.019       .  S
O479       Cr483   1.981       .  S
O479        C480   1.259       .  A
C480        C949   1.474       .  S
Cr481       O484   1.755       .  S
Cr482       O484   1.773       .  S
Cr483       O484   1.767       .  S
O485       Cr503   2.030       .  S
O485        C493   1.270       .  A
O486       Cr503   1.966       .  S
O486        C487   1.255       .  A
C487        O488   1.267       .  A
C487       C1109   1.481       .  S
O488       Cr504   2.032       .  S
O489       Cr504   2.005       .  S
O489        C490   1.263       .  A
C490        O491   1.262       .  A
C490        C859   1.473       .  S
O491       Cr505   1.997       .  S
O492       Cr505   1.961       .  S
O492        C493   1.259       .  A
C493        C866   1.486       .  S
O494       Cr503   1.980       .  S
O494        C502   1.258       .  A
O495       Cr503   2.022       .  S
O495        C496   1.273       .  A
C496        O497   1.264       .  A
C496        C849   1.488       .  S
O497       Cr504   1.976       .  S
O498       Cr504   2.041       .  S
O498        C499   1.275   1_545  A
C499        O500   1.260   1_565  A
C499        C976   1.493       .  S
O500       Cr505   1.967       .  S
O501       Cr505   2.002       .  S
O501        C502   1.264       .  A
C502       C1059   1.479       .  S
Cr503       O506   1.771       .  S
Cr504       O506   1.776       .  S
Cr505       O506   1.761       .  S
O507       Cr525   1.987       .  S
O507        C515   1.259       .  A
O508       Cr525   1.964       .  S
O508        C509   1.259       .  A
C509        O510   1.269       .  A
C509        C826   1.483       .  S
O510       Cr526   2.023       .  S
O511       Cr526   2.002       .  S
O511        C512   1.262       .  A
C512        O513   1.260       .  A
C512       C1116   1.476       .  S
O513       Cr527   1.994       .  S
O514       Cr527   2.004       .  S
O514        C515   1.262       .  A
C515        C839   1.468       .  S
O516       Cr525   1.981       .  S
O516        C524   1.262       .  A
O517       Cr525   1.988       .  S
O517        C518   1.262       .  A
C518        O519   1.264       .  A
C518        C956   1.488   1_545  S
O519       Cr526   2.005       .  S
O520       Cr526   2.018       .  S
O520        C521   1.272       .  A
C521        O522   1.264       .  A
C521        C846   1.487       .  S
O522       Cr527   1.976       .  S
O523       Cr527   2.013       .  S
O523        C524   1.269       .  A
C524       C1036   1.488       .  S
Cr525       O528   1.767       .  S
Cr526       O528   1.781       .  S
Cr527       O528   1.772       .  S
O529       Cr547   1.995       .  S
O529        C537   1.263       .  A
O530       Cr547   1.964       .  S
O530        C531   1.259       .  A
C531        O532   1.266       .  A
C531        C889   1.477       .  S
O532       Cr548   2.017       .  S
O533       Cr548   2.008       .  S
O533        C534   1.262       .  A
C534        O535   1.257       .  A
C534       C1419   1.474       .  S
O535       Cr549   1.990       .  S
O536       Cr549   2.000       .  S
O536        C537   1.264       .  A
C537       C1019   1.469       .  S
O538       Cr547   1.986       .  S
O538        C546   1.261       .  A
O539       Cr547   1.990       .  S
O539        C540   1.263   1_545  A
C540        O541   1.264   1_565  A
C540        C799   1.486       .  S
O541       Cr548   2.000       .  S
O542       Cr548   2.018       .  S
O542        C543   1.272       .  A
C543        O544   1.264       .  A
C543        C816   1.480       .  S
O544       Cr549   1.970       .  S
O545       Cr549   2.006       .  S
O545        C546   1.265       .  A
C546        C806   1.488       .  S
Cr547       O550   1.764       .  S
Cr548       O550   1.781       .  S
Cr549       O550   1.774       .  S
O551       Cr569   2.018       .  S
O551        C559   1.267       .  A
O552       Cr569   1.965       .  S
O552        C553   1.257       .  A
C553        O554   1.269       .  A
C553       C1379   1.486       .  S
O554       Cr570   2.035       .  S
O555       Cr570   1.995       .  S
O555        C556   1.261       .  A
C556        O557   1.263       .  A
C556        C919   1.471       .  S
O557       Cr571   2.004       .  S
O558       Cr571   1.967       .  S
O558        C559   1.258       .  A
C559       C1099   1.471       .  S
O560       Cr569   1.987       .  S
O560        C568   1.261       .  A
O561       Cr569   2.013       .  S
O561        C562   1.270       .  A
C562        O563   1.262       .  A
C562        C819   1.484       .  S
O563       Cr570   1.972       .  S
O564       Cr570   2.043   1_565  S
O564        C565   1.274       .  A
C565        O566   1.259   1_565  A
C565        C779   1.491       .  S
O566       Cr571   1.961       .  S
O567       Cr571   2.010       .  S
O567        C568   1.267       .  A
C568        C789   1.487       .  S
Cr569       O572   1.771       .  S
Cr570       O572   1.779       .  S
Cr571       O572   1.758       .  S
O573       Cr591   1.972       .  S
O573        C581   1.259       .  A
O574       Cr591   2.001       .  S
O574        C575   1.261       .  A
C575        O576   1.260       .  A
C575        C929   1.472       .  S
O576       Cr592   1.998       .  S
O577       Cr592   2.035       .  S
O577        C578   1.269       .  A
C578        O579   1.256       .  A
C578       C1509   1.486       .  S
O579       Cr593   1.961       .  S
O580       Cr593   2.016       .  S
O580        C581   1.268       .  A
C581        C879   1.469       .  S
O582       Cr591   2.007       .  S
O582        C590   1.265       .  A
O583       Cr591   1.966       .  S
O583        C584   1.262       .  A
C584        O585   1.276       .  A
C584        C756   1.495   1_655  S
O585       Cr592   2.044       .  S
O586       Cr592   1.967       .  S
O586        C587   1.261       .  A
C587        O588   1.270       .  A
C587        C766   1.488       .  S
O588       Cr593   2.022       .  S
O589       Cr593   1.986       .  S
O589        C590   1.261       .  A
C590        C796   1.484       .  S
Cr591       O594   1.761       .  S
Cr592       O594   1.776       .  S
Cr593       O594   1.772       .  S
O595       Cr613   2.005       .  S
O595        C603   1.265       .  A
O596       Cr613   1.956       .  S
O596        C597   1.254       .  A
C597        O598   1.269       .  A
C597       C1469   1.479       .  S
O598       Cr614   2.034       .  S
O599       Cr614   1.997       .  S
O599        C600   1.260       .  A
C600        O601   1.262       .  A
C600        C996   1.472       .  S
O601       Cr615   2.003       .  S
O602       Cr615   1.970       .  S
O602        C603   1.259       .  A
C603        C909   1.466       .  S
O604       Cr613   1.981       .  S
O604        C612   1.261       .  A
O605       Cr613   2.018       .  S
O605        C606   1.270       .  A
C606        O607   1.261       .  A
C606        C769   1.488       .  S
O607       Cr614   1.970       .  S
O608       Cr614   2.042       .  S
O608        C609   1.276       .  A
C609        O610   1.260       .  A
C609        C746   1.493   1_655  S
O610       Cr615   1.963       .  S
O611       Cr615   2.007       .  S
O611        C612   1.266       .  A
C612        C776   1.478       .  S
Cr613       O616   1.770       .  S
Cr614       O616   1.774       .  S
Cr615       O616   1.759       .  S
O617       Cr635   1.964       .  S
O617        C625   1.260       .  A
O618       Cr635   1.992       .  S
O618        C619   1.262       .  A
C619        O620   1.261       .  A
C619        C829   1.466       .  S
O620       Cr636   1.996       .  S
O621       Cr636   2.025       .  S
O621        C622   1.265       .  A
C622        O623   1.256       .  A
C622       C1609   1.485       .  S
O623       Cr637   1.969       .  S
O624       Cr637   2.012       .  S
O624        C625   1.269       .  A
C625        C939   1.471       .  S
O626       Cr635   1.997       .  S
O626        C634   1.262       .  A
O627       Cr635   1.974       .  S
O627        C628   1.263       .  A
C628        O629   1.273       .  A
C628        C729   1.489   1_565  S
O629       Cr636   2.031       .  S
O630       Cr636   1.947       .  S
O630        C631   1.258       .  A
C631        O632   1.272       .  A
C631        C736   1.479       .  S
O632       Cr637   2.021       .  S
O633       Cr637   1.992       .  S
O633        C634   1.261       .  A
C634        C759   1.484       .  S
Cr635       O638   1.760       .  S
Cr636       O638   1.776       .  S
Cr637       O638   1.772       .  S
O639       Cr657   2.003       .  S
O639        C647   1.264       .  A
O640       Cr657   1.959       .  S
O640        C641   1.257       .  A
C641        O642   1.266       .  A
C641       C1556   1.475       .  S
O642       Cr658   2.023       .  S
O643       Cr658   1.996       .  S
O643        C644   1.261       .  A
C644        O645   1.263       .  A
C644        C856   1.475       .  S
O645       Cr659   2.004       .  S
O646       Cr659   1.970       .  S
O646        C647   1.259       .  A
C647       C1009   1.462       .  S
O648       Cr657   1.989       .  S
O648        C656   1.262       .  A
O649       Cr657   2.004       .  S
O649        C650   1.266       .  A
C650        O651   1.261       .  A
C650        C739   1.478       .  S
O651       Cr658   1.965       .  S
O652       Cr658   2.022       .  S
O652        C653   1.272       .  A
C653        O654   1.259       .  A
C653        C719   1.484   1_565  S
O654       Cr659   1.965       .  S
O655       Cr659   2.002       .  S
O655        C656   1.265       .  A
C656        C749   1.480       .  S
Cr657       O660   1.771       .  S
Cr658       O660   1.775       .  S
Cr659       O660   1.759       .  S
O661       Cr679   1.963       .  S
O661        C669   1.258       .  A
O662       Cr679   1.988       .  S
O662        C663   1.265       .  A
C663        O664   1.264       .  A
C663       C1029   1.476       .  S
O664       Cr680   2.006       .  S
O665       Cr680   2.019       .  S
O665        C666   1.263       .  A
C666        O667   1.254       .  A
C666       C1339   1.476       .  S
O667       Cr681   1.964       .  S
O668       Cr681   2.023       .  S
O668        C669   1.268       .  A
C669        C836   1.482       .  S
O670       Cr679   2.002       .  S
O670        C678   1.264       .  A
O671       Cr679   1.973       .  S
O671        C672   1.261       .  A
C672        O673   1.270       .  A
C672        C809   1.489   1_455  S
O673       Cr680   2.025       .  S
O674       Cr680   1.973       .  S
O674        C675   1.264       .  A
C675        O676   1.273       .  A
C675        C706   1.482       .  S
O676       Cr681   2.021       .  S
O677       Cr681   1.979       .  S
O677        C678   1.258       .  A
C678        C726   1.476       .  S
Cr679       O682   1.761       .  S
Cr680       O682   1.781       .  S
Cr681       O682   1.772       .  S
O683       Cr701   2.003       .  S
O683        C691   1.261       .  A
O684       Cr701   1.986       .  S
O684        C685   1.259       .  A
C685        O686   1.261       .  A
C685       C1309   1.468       .  S
O686       Cr702   1.998       .  S
O687       Cr702   2.024       .  S
O687        C688   1.270       .  A
C688        O689   1.260       .  A
C688       C1089   1.480       .  S
O689       Cr703   1.970       .  S
O690       Cr703   1.990       .  S
O690        C691   1.260       .  A
C691        C869   1.469       .  S
O692       Cr701   2.007       .  S
O692        C700   1.267       .  A
O693       Cr701   1.972       .  S
O693        C694   1.263       .  A
C694        O695   1.272       .  A
C694        C709   1.491       .  S
O695       Cr702   2.023       .  S
O696       Cr702   2.008       .  S
O696        C697   1.265       .  A
C697        O698   1.261       .  A
C697        C786   1.489   1_455  S
O698       Cr703   1.989       .  S
O699       Cr703   1.979       .  S
O699        C700   1.262       .  A
C700        C716   1.483       .  S
Cr701       O704   1.773       .  S
Cr702       O704   1.779       .  S
Cr703       O704   1.764       .  S
C705        C706   1.405       .  A
C705        C710   1.402   1_554  A
C705        H712   1.083       .  S
C706        C707   1.406       .  A
C707        C708   1.400   1_554  A
C707        F714   1.358       .  S
C708        C709   1.409       .  A
C708        H713   1.083       .  S
C709        C710   1.410       .  A
C710        F711   1.357       .  S
C715        C716   1.407       .  A
C715        C720   1.397       .  A
C715        H722   1.083       .  S
C716        C717   1.407       .  A
C717        C718   1.398       .  A
C717        F724   1.358       .  S
C718        C719   1.408       .  A
C718        H723   1.083   1_545  S
C719        C720   1.407       .  A
C720        F721   1.357       .  S
C725        C726   1.403       .  A
C725        C730   1.402       .  A
C725        H732   1.083       .  S
C726        C727   1.403       .  A
C727        C728   1.399       .  A
C727        F734   1.358       .  S
C728        C729   1.408       .  A
C728        H733   1.083       .  S
C729        C730   1.412       .  A
C730        F731   1.357       .  S
C735        C736   1.404       .  A
C735        C740   1.398   1_554  A
C735        H742   1.083       .  S
C736        C737   1.411       .  A
C737        C738   1.390   1_554  A
C737        F744   1.358       .  S
C738        C739   1.402       .  A
C738        H743   1.083       .  S
C739        C740   1.410       .  A
C740        F741   1.357       .  S
C745        C746   1.409       .  A
C745        C750   1.407       .  A
C745        H752   1.083       .  S
C746        C747   1.413       .  A
C747        C748   1.396       .  A
C747        F754   1.358       .  S
C748        C749   1.401       .  A
C748        H753   1.084       .  S
C749        C750   1.407       .  A
C750        F751   1.357       .  S
C755        C756   1.409       .  A
C755        C760   1.396       .  A
C755        H762   1.083       .  S
C756        C757   1.412       .  A
C757        C758   1.408       .  A
C757        F764   1.357       .  S
C758        C759   1.407       .  A
C758        H763   1.083       .  S
C759        C760   1.404       .  A
C760        F761   1.358       .  S
C765        C766   1.406       .  A
C765        C770   1.396   1_554  A
C765        H772   1.083       .  S
C766        C767   1.409       .  A
C767        C768   1.403   1_554  A
C767        F774   1.357       .  S
C768        C769   1.408       .  A
C768        H773   1.083       .  S
C769        C770   1.409       .  A
C770        F771   1.358       .  S
C775        C776   1.407       .  A
C775        C780   1.407       .  A
C775        H782   1.083       .  S
C776        C777   1.402       .  A
C777        C778   1.395       .  A
C777        F784   1.358       .  S
C778        C779   1.409       .  A
C778        H783   1.083       .  S
C779        C780   1.411       .  A
C780        F781   1.357       .  S
C785        C786   1.406       .  A
C785        C790   1.410       .  A
C785        H792   1.083       .  S
C786        C787   1.410       .  A
C787        C788   1.397       .  A
C787        F794   1.358   1_655  S
C788        C789   1.402       .  A
C788        H793   1.084       .  S
C789        C790   1.412       .  A
C790        F791   1.357       .  S
C795        C796   1.403       .  A
C795        C800   1.397       .  A
C795        H802   1.084       .  S
C796        C797   1.410       .  A
C797        C798   1.408       .  A
C797        F804   1.357       .  S
C798        C799   1.406       .  A
C798        H803   1.083       .  S
C799        C800   1.409       .  A
C800        F801   1.358       .  S
C805        C806   1.408       .  A
C805        C810   1.398       .  A
C805        H812   1.083       .  S
C806        C807   1.408       .  A
C807        C808   1.402       .  A
C807        F814   1.357       .  S
C808        C809   1.409       .  A
C808        H813   1.083       .  S
C809        C810   1.409       .  A
C810        F811   1.358       .  S
C815        C816   1.404       .  A
C815        C820   1.397   1_554  A
C815        H822   1.083       .  S
C816        C817   1.407       .  A
C817        C818   1.400   1_554  A
C817        F824   1.358       .  S
C818        C819   1.408       .  A
C818        H823   1.083       .  S
C819        C820   1.408       .  A
C820        F821   1.357       .  S
C825        C826   1.406       .  A
C825        C830   1.391       .  A
C825        H832   1.083       .  S
C826        C827   1.411   1_545  A
C827        C828   1.405       .  A
C827        F834   1.357       .  S
C828        C829   1.403       .  A
C828        H833   1.083       .  S
C829        C830   1.402   1_565  A
C830        F831   1.359       .  S
C835        C836   1.406       .  A
C835        C840   1.405       .  A
C835        H842   1.083       .  S
C836        C837   1.410       .  A
C837        C838   1.395       .  A
C837        F844   1.358       .  S
C838        C839   1.400       .  A
C838        H843   1.084       .  S
C839        C840   1.406       .  A
C840        F841   1.357       .  S
C845        C846   1.406       .  A
C845        C850   1.402       .  A
C845        H852   1.083       .  S
C846        C847   1.410       .  A
C847        C848   1.400       .  A
C847        F854   1.357       .  S
C848        C849   1.405       .  A
C848        H853   1.083       .  S
C849        C850   1.410       .  A
C850        F851   1.357       .  S
C855        C856   1.404   1_545  A
C855        C860   1.406       .  A
C855        H862   1.083       .  S
C856        C857   1.403       .  A
C857        C858   1.397       .  A
C857        F864   1.354       .  S
C858        C859   1.402   1_565  A
C858        H863   1.084       .  S
C859        C860   1.407       .  A
C860        F861   1.357       .  S
C865        C866   1.407       .  A
C865        C870   1.392       .  A
C865        H872   1.082       .  S
C866        C867   1.410       .  A
C867        C868   1.407       .  A
C867        F874   1.357       .  S
C868        C869   1.405       .  A
C868        H873   1.083       .  S
C869        C870   1.401       .  A
C870        F871   1.358       .  S
C875        C876   1.402       .  A
C875        C880   1.397       .  A
C875        H882   1.083       .  S
C876        C877   1.409       .  A
C877        C878   1.394       .  A
C877        F884   1.356       .  S
C878        C879   1.400       .  A
C878        H883   1.084       .  S
C879        C880   1.406       .  A
C880        F881   1.354       .  S
C885        C886   1.404       .  A
C885        C890   1.404       .  A
C885        H892   1.082       .  S
C886        C887   1.398   1_565  A
C887        C888   1.390       .  A
C887        F894   1.358       .  S
C888        C889   1.403       .  A
C888        H893   1.076       .  S
C889        C890   1.408   1_545  A
C890        F891   1.358       .  S
C895        C896   1.406       .  A
C895        C900   1.398       .  A
C895        H902   1.083       .  S
C896        C897   1.407       .  A
C897        C898   1.390       .  A
C897        F904   1.358       .  S
C898        C899   1.405       .  A
C898        H903   1.083       .  S
C899        C900   1.407       .  A
C900        F901   1.357       .  S
C905        C906   1.403       .  A
C905        C910   1.392       .  A
C905        H912   1.082       .  S
C906        C907   1.405       .  A
C907        C908   1.394       .  A
C907        F914   1.358       .  S
C908        C909   1.403       .  A
C908        H913   1.079       .  S
C909        C910   1.404       .  A
C910        F911   1.358       .  S
C915        C916   1.401   1_545  A
C915        C920   1.399       .  A
C915        H922   1.084       .  S
C916        C917   1.405       .  A
C917        C918   1.402       .  A
C917        F924   1.356       .  S
C918        C919   1.403   1_565  A
C918        H923   1.083       .  S
C919        C920   1.403       .  A
C920        F921   1.354       .  S
C925        C926   1.404       .  A
C925        C930   1.402       .  A
C925        H932   1.083       .  S
C926        C927   1.404   1_455  A
C927        C928   1.400       .  A
C927        F934   1.358       .  S
C928        C929   1.402       .  A
C928        H933   1.080       .  S
C929        C930   1.404   1_655  A
C930        F931   1.357       .  S
C935        C936   1.402       .  A
C935        C940   1.395       .  A
C935        H942   1.084       .  S
C936        C937   1.404       .  A
C937        C938   1.395       .  A
C937        F944   1.357       .  S
C938        C939   1.403       .  A
C938        H943   1.083       .  S
C939        C940   1.408       .  A
C940        F941   1.358       .  S
C945        C946   1.408       .  A
C945        C950   1.402       .  A
C945        H952   1.083       .  S
C946        C947   1.412       .  A
C947        C948   1.395       .  A
C947        F954   1.358       .  S
C948        C949   1.400       .  A
C948        H953   1.084       .  S
C949        C950   1.406       .  A
C950        F951   1.357       .  S
C955        C956   1.406       .  A
C955        C960   1.395       .  A
C955        H962   1.084       .  S
C956        C957   1.409       .  A
C957        C958   1.409       .  A
C957        F964   1.357       .  S
C958        C959   1.409       .  A
C958        H963   1.083       .  S
C959        C960   1.406       .  A
C960        F961   1.358       .  S
C965        C966   1.404       .  A
C965        C970   1.404       .  A
C965        H972   1.083       .  S
C966        C967   1.403       .  A
C967        C968   1.398       .  A
C967        F974   1.358       .  S
C968        C969   1.409       .  A
C968        H973   1.083       .  S
C969        C970   1.411       .  A
C970        F971   1.357       .  S
C975        C976   1.408       .  A
C975        C980   1.404       .  A
C975        H982   1.083       .  S
C976        C977   1.414       .  A
C977        C978   1.399       .  A
C977        F984   1.358       .  S
C978        C979   1.401       .  A
C978        H983   1.084       .  S
C979        C980   1.407       .  A
C980        F981   1.357       .  S
C985        C986   1.405       .  A
C985        C990   1.394       .  A
C985        H992   1.083       .  S
C986        C987   1.410       .  A
C987        C988   1.404       .  A
C987        F994   1.357       .  S
C988        C989   1.408       .  A
C988        H993   1.083       .  S
C989        C990   1.410       .  A
C990        F991   1.358       .  S
C995        C996   1.403   1_455  A
C995       C1000   1.402       .  A
C995       H1002   1.083       .  S
C996        C997   1.404       .  A
C997        C998   1.400       .  A
C997       F1004   1.355       .  S
C998        C999   1.402   1_655  A
C998       H1003   1.084       .  S
C999       C1000   1.404       .  A
C1000      F1001   1.356       .  S
C1005      C1006   1.405       .  A
C1005      C1010   1.392       .  A
C1005      H1012   1.081       .  S
C1006      C1007   1.406       .  A
C1007      C1008   1.394       .  A
C1007      F1014   1.357       .  S
C1008      C1009   1.401       .  A
C1008      H1013   1.080       .  S
C1009      C1010   1.402       .  A
C1010      F1011   1.358       .  S
C1015      C1016   1.404       .  A
C1015      C1020   1.404       .  A
C1015      H1022   1.083       .  S
C1016      C1017   1.408       .  A
C1017      C1018   1.397       .  A
C1017      F1024   1.356       .  S
C1018      C1019   1.399       .  A
C1018      H1023   1.084       .  S
C1019      C1020   1.405       .  A
C1020      F1021   1.354       .  S
C1025      C1026   1.408       .  A
C1025      C1030   1.413   1_655  A
C1025      H1032   1.083   1_655  S
C1026      C1027   1.404       .  A
C1027      C1028   1.384       .  A
C1027      F1034   1.355       .  S
C1028      C1029   1.400   1_655  A
C1028      H1033   1.085       .  S
C1029      C1030   1.409       .  A
C1030      F1031   1.357       .  S
C1035      C1036   1.407       .  A
C1035      C1040   1.398       .  A
C1035      H1042   1.083       .  S
C1036      C1037   1.410       .  A
C1037      C1038   1.402       .  A
C1037      F1044   1.357       .  S
C1038      C1039   1.408       .  A
C1038      H1043   1.083       .  S
C1039      C1040   1.408       .  A
C1040      F1041   1.357       .  S
C1045      C1046   1.401       .  A
C1045      C1050   1.393       .  A
C1045      H1052   1.084       .  S
C1046      C1047   1.404       .  A
C1047      C1048   1.401       .  A
C1047      F1054   1.357       .  S
C1048      C1049   1.408       .  A
C1048      H1053   1.083       .  S
C1049      C1050   1.409       .  A
C1050      F1051   1.358       .  S
C1055      C1056   1.407       .  A
C1055      C1060   1.396       .  A
C1055      H1062   1.083       .  S
C1056      C1057   1.409       .  A
C1057      C1058   1.403       .  A
C1057      F1064   1.357       .  S
C1058      C1059   1.405       .  A
C1058      H1063   1.083       .  S
C1059      C1060   1.405       .  A
C1060      F1061   1.358       .  S
C1065      C1066   1.401       .  A
C1065      C1070   1.394       .  A
C1065      H1072   1.084       .  S
C1066      C1067   1.406       .  A
C1067      C1068   1.404       .  A
C1067      F1074   1.357       .  S
C1068      C1069   1.408       .  A
C1068      H1073   1.083       .  S
C1069      C1070   1.411       .  A
C1070      F1071   1.358   1_545  S
C1075      C1076   1.405       .  A
C1075      C1080   1.395       .  A
C1075      H1082   1.083       .  S
C1076      C1077   1.411       .  A
C1077      C1078   1.404       .  A
C1077      F1084   1.357       .  S
C1078      C1079   1.408       .  A
C1078      H1083   1.083       .  S
C1079      C1080   1.410       .  A
C1080      F1081   1.358       .  S
C1085      C1086   1.401   1_455  A
C1085      C1090   1.397       .  A
C1085      H1092   1.084       .  S
C1086      C1087   1.404       .  A
C1087      C1088   1.403       .  A
C1087      F1094   1.356       .  S
C1088      C1089   1.406   1_655  A
C1088      H1093   1.083       .  S
C1089      C1090   1.408       .  A
C1090      F1091   1.357       .  S
C1095      C1096   1.406       .  A
C1095      C1100   1.397       .  A
C1095      H1102   1.081       .  S
C1096      C1097   1.405       .  A
C1097      C1098   1.396       .  A
C1097      F1104   1.358       .  S
C1098      C1099   1.403       .  A
C1098      H1103   1.079       .  S
C1099      C1100   1.403       .  A
C1100      F1101   1.358       .  S
C1105      C1106   1.406       .  A
C1105      C1110   1.407       .  A
C1105      H1112   1.083       .  S
C1106      C1107   1.405       .  A
C1107      C1108   1.396       .  A
C1107      F1114   1.358       .  S
C1108      C1109   1.404       .  A
C1108      H1113   1.084       .  S
C1109      C1110   1.409       .  A
C1110      F1111   1.357       .  S
C1115      C1116   1.406       .  A
C1115      C1120   1.409       .  A
C1115      H1122   1.083       .  S
C1116      C1117   1.402       .  A
C1117      C1118   1.397       .  A
C1117      F1124   1.358       .  S
C1118      C1119   1.408       .  A
C1118      H1123   1.084       .  S
C1119      C1120   1.410       .  A
C1120      F1121   1.357       .  S
C1125      C1126   1.403       .  A
C1125      C1130   1.397       .  A
C1125      H1132   1.083       .  S
C1126      C1127   1.413       .  A
C1127      C1128   1.397       .  A
C1127      F1134   1.358       .  S
C1128      C1129   1.402       .  A
C1128      H1133   1.083       .  S
C1129      C1130   1.411       .  A
C1130      F1131   1.357       .  S
C1135      C1136   1.406       .  A
C1135      C1140   1.397       .  A
C1135      H1142   1.084       .  S
C1136      C1137   1.409       .  A
C1137      C1138   1.406       .  A
C1137      F1144   1.357       .  S
C1138      C1139   1.405       .  A
C1138      H1143   1.083       .  S
C1139      C1140   1.402       .  A
C1140      F1141   1.358       .  S
C1145      C1146   1.407       .  A
C1145      C1150   1.411       .  A
C1145      H1152   1.083       .  S
C1146      C1147   1.410       .  A
C1147      C1148   1.395       .  A
C1147      F1154   1.358       .  S
C1148      C1149   1.403       .  A
C1148      H1153   1.084       .  S
C1149      C1150   1.412       .  A
C1150      F1151   1.357       .  S
C1155      C1156   1.406       .  A
C1155      C1160   1.402       .  A
C1155      H1162   1.083       .  S
C1156      C1157   1.409       .  A
C1157      C1158   1.396       .  A
C1157      F1164   1.358       .  S
C1158      C1159   1.401       .  A
C1158      H1163   1.084       .  S
C1159      C1160   1.403       .  A
C1160      F1161   1.357       .  S
C1165      C1166   1.402       .  A
C1165      C1170   1.396       .  A
C1165      H1172   1.084       .  S
C1166      C1167   1.410       .  A
C1167      C1168   1.409       .  A
C1167      F1174   1.357       .  S
C1168      C1169   1.407       .  A
C1168      H1173   1.083       .  S
C1169      C1170   1.408       .  A
C1170      F1171   1.358       .  S
C1175      C1176   1.407       .  A
C1175      C1180   1.405       .  A
C1175      H1182   1.083       .  S
C1176      C1177   1.410       .  A
C1177      C1178   1.393       .  A
C1177      F1184   1.358       .  S
C1178      C1179   1.403       .  A
C1178      H1183   1.083       .  S
C1179      C1180   1.410       .  A
C1180      F1181   1.357       .  S
C1185      C1186   1.405       .  A
C1185      C1190   1.405       .  A
C1185      H1192   1.083       .  S
C1186      C1187   1.406       .  A
C1187      C1188   1.392       .  A
C1187      F1194   1.358       .  S
C1188      C1189   1.402       .  A
C1188      H1193   1.084       .  S
C1189      C1190   1.409       .  A
C1190      F1191   1.357       .  S
C1195      C1196   1.407       .  A
C1195      C1200   1.395       .  A
C1195      H1202   1.083       .  S
C1196      C1197   1.406       .  A
C1197      C1198   1.397       .  A
C1197      F1204   1.357       .  S
C1198      C1199   1.407       .  A
C1198      H1203   1.083       .  S
C1199      C1200   1.407       .  A
C1200      F1201   1.358       .  S
C1205      C1206   1.401       .  A
C1205      C1210   1.391       .  A
C1205      H1212   1.084       .  S
C1206      C1207   1.408       .  A
C1207      C1208   1.403       .  A
C1207      F1214   1.357       .  S
C1208      C1209   1.404       .  A
C1208      H1213   1.083       .  S
C1209      C1210   1.405       .  A
C1210      F1211   1.358       .  S
C1215      C1216   1.408       .  A
C1215      C1220   1.397       .  A
C1215      H1222   1.083       .  S
C1216      C1217   1.406       .  A
C1217      C1218   1.397       .  A
C1217      F1224   1.357       .  S
C1218      C1219   1.408       .  A
C1218      H1223   1.083       .  S
C1219      C1220   1.407       .  A
C1220      F1221   1.358       .  S
C1225      C1226   1.407       .  A
C1225      C1230   1.397       .  A
C1225      H1232   1.083       .  S
C1226      C1227   1.408       .  A
C1227      C1228   1.399       .  A
C1227      F1234   1.357       .  S
C1228      C1229   1.407       .  A
C1228      H1233   1.083       .  S
C1229      C1230   1.409       .  A
C1230      F1231   1.358       .  S
C1235      C1236   1.406       .  A
C1235      C1240   1.407       .  A
C1235      H1242   1.083       .  S
C1236      C1237   1.407       .  A
C1237      C1238   1.394       .  A
C1237      F1244   1.358       .  S
C1238      C1239   1.402       .  A
C1238      H1243   1.084       .  S
C1239      C1240   1.410       .  A
C1240      F1241   1.357       .  S
C1245      C1246   1.400       .  A
C1245      C1250   1.395       .  A
C1245      H1252   1.084       .  S
C1246      C1247   1.409       .  A
C1247      C1248   1.408       .  A
C1247      F1254   1.357       .  S
C1248      C1249   1.409       .  A
C1248      H1253   1.083       .  S
C1249      C1250   1.414       .  A
C1250      F1251   1.358       .  S
C1255      C1256   1.402       .  A
C1255      C1260   1.397       .  A
C1255      H1262   1.084       .  S
C1256      C1257   1.407       .  A
C1257      C1258   1.406       .  A
C1257      F1264   1.357       .  S
C1258      C1259   1.409       .  A
C1258      H1263   1.083       .  S
C1259      C1260   1.412       .  A
C1260      F1261   1.357       .  S
C1265      C1266   1.404       .  A
C1265      C1270   1.393       .  A
C1265      H1272   1.084       .  S
C1266      C1267   1.407       .  A
C1267      C1268   1.404       .  A
C1267      F1274   1.357       .  S
C1268      C1269   1.405       .  A
C1268      H1273   1.083       .  S
C1269      C1270   1.404       .  A
C1270      F1271   1.358       .  S
C1275      C1276   1.408       .  A
C1275      C1280   1.392       .  A
C1275      H1282   1.083       .  S
C1276      C1277   1.409       .  A
C1277      C1278   1.403       .  A
C1277      F1284   1.357       .  S
C1278      C1279   1.405       .  A
C1278      H1283   1.083       .  S
C1279      C1280   1.401       .  A
C1280      F1281   1.358       .  S
C1285      C1286   1.401       .  A
C1285      C1290   1.398       .  A
C1285      H1292   1.084       .  S
C1286      C1287   1.406       .  A
C1287      C1288   1.403       .  A
C1287      F1294   1.357       .  S
C1288      C1289   1.407       .  A
C1288      H1293   1.083       .  S
C1289      C1290   1.414       .  A
C1290      F1291   1.358       .  S
C1295      C1296   1.405       .  A
C1295      C1300   1.394       .  A
C1295      H1302   1.083       .  S
C1296      C1297   1.410       .  A
C1297      C1298   1.403       .  A
C1297      F1304   1.357       .  S
C1298      C1299   1.407       .  A
C1298      H1303   1.083       .  S
C1299      C1300   1.410       .  A
C1300      F1301   1.358       .  S
C1305      C1306   1.407       .  A
C1305      C1310   1.397       .  A
C1305      H1312   1.084       .  S
C1306      C1307   1.408       .  A
C1307      C1308   1.403       .  A
C1307      F1314   1.357       .  S
C1308      C1309   1.403       .  A
C1308      H1313   1.083       .  S
C1309      C1310   1.403       .  A
C1310      F1311   1.358       .  S
C1315      C1316   1.397       .  A
C1315      C1320   1.390       .  A
C1315      H1322   1.084       .  S
C1316      C1317   1.405       .  A
C1317      C1318   1.404       .  A
C1317      F1324   1.357       .  S
C1318      C1319   1.407       .  A
C1318      H1323   1.083       .  S
C1319      C1320   1.410       .  A
C1320      F1321   1.356       .  S
C1325      C1326   1.404       .  A
C1325      C1330   1.396       .  A
C1325      H1332   1.083       .  S
C1326      C1327   1.410       .  A
C1327      C1328   1.388       .  A
C1327      F1334   1.358       .  S
C1328      C1329   1.396       .  A
C1328      H1333   1.084       .  S
C1329      C1330   1.402       .  A
C1330      F1331   1.355       .  S
C1335      C1336   1.405       .  A
C1335      C1340   1.403       .  A
C1335      H1342   1.083       .  S
C1336      C1337   1.405       .  A
C1337      C1338   1.392       .  A
C1337      F1344   1.358       .  S
C1338      C1339   1.403       .  A
C1338      H1343   1.084       .  S
C1339      C1340   1.408       .  A
C1340      F1341   1.357       .  S
C1345      C1346   1.405       .  A
C1345      C1350   1.389   1_556  A
C1345      H1352   1.083       .  S
C1346      C1347   1.408       .  A
C1347      C1348   1.401   1_556  A
C1347      F1354   1.357       .  S
C1348      C1349   1.407       .  A
C1348      H1353   1.083       .  S
C1349      C1350   1.408       .  A
C1350      F1351   1.358       .  S
C1355      C1356   1.407       .  A
C1355      C1360   1.390       .  A
C1355      H1362   1.084       .  S
C1356      C1357   1.409       .  A
C1357      C1358   1.405       .  A
C1357      F1364   1.357       .  S
C1358      C1359   1.404       .  A
C1358      H1363   1.083       .  S
C1359      C1360   1.401       .  A
C1360      F1361   1.359       .  S
C1365      C1366   1.402       .  A
C1365      C1370   1.393       .  A
C1365      H1372   1.084       .  S
C1366      C1367   1.407       .  A
C1367      C1368   1.393       .  A
C1367      F1374   1.358       .  S
C1368      C1369   1.400       .  A
C1368      H1373   1.084       .  S
C1369      C1370   1.405       .  A
C1370      F1371   1.358       .  S
C1375      C1376   1.404       .  A
C1375      C1380   1.394       .  A
C1375      H1382   1.084       .  S
C1376      C1377   1.409       .  A
C1377      C1378   1.409       .  A
C1377      F1384   1.357       .  S
C1378      C1379   1.408       .  A
C1378      H1383   1.083       .  S
C1379      C1380   1.407       .  A
C1380      F1381   1.358       .  S
C1385      C1386   1.404       .  A
C1385      C1390   1.394       .  A
C1385      H1392   1.078       .  S
C1386      C1387   1.406       .  A
C1387      C1388   1.397       .  A
C1387      F1394   1.358       .  S
C1388      C1389   1.405       .  A
C1388      H1393   1.083       .  S
C1389      C1390   1.404       .  A
C1390      F1391   1.358       .  S
C1395      C1396   1.401       .  A
C1395      C1400   1.398       .  A
C1395      H1402   1.084       .  S
C1396      C1397   1.405       .  A
C1397      C1398   1.404       .  A
C1397      F1404   1.357       .  S
C1398      C1399   1.404       .  A
C1398      H1403   1.083       .  S
C1399      C1400   1.404       .  A
C1400      F1401   1.354       .  S
C1405      C1406   1.402       .  A
C1405      C1410   1.397       .  A
C1405      H1412   1.084       .  S
C1406      C1407   1.406       .  A
C1407      C1408   1.405       .  A
C1407      F1414   1.357       .  S
C1408      C1409   1.409       .  A
C1408      H1413   1.083       .  S
C1409      C1410   1.413       .  A
C1410      F1411   1.358       .  S
C1415      C1416   1.406       .  A
C1415      C1420   1.401       .  A
C1415      H1422   1.083       .  S
C1416      C1417   1.408       .  A
C1417      C1418   1.404       .  A
C1417      F1424   1.358       .  S
C1418      C1419   1.404       .  A
C1418      H1423   1.083       .  S
C1419      C1420   1.404       .  A
C1420      F1421   1.358       .  S
C1425      C1426   1.402       .  A
C1425      C1430   1.395       .  A
C1425      H1432   1.084       .  S
C1426      C1427   1.408       .  A
C1427      C1428   1.407       .  A
C1427      F1434   1.357       .  S
C1428      C1429   1.409       .  A
C1428      H1433   1.083       .  S
C1429      C1430   1.412       .  A
C1430      F1431   1.358       .  S
C1435      C1436   1.405       .  A
C1435      C1440   1.394   1_554  A
C1435      H1442   1.083       .  S
C1436      C1437   1.409       .  A
C1437      C1438   1.400   1_554  A
C1437      F1444   1.357       .  S
C1438      C1439   1.406       .  A
C1438      H1443   1.083       .  S
C1439      C1440   1.410       .  A
C1440      F1441   1.358       .  S
C1445      C1446   1.403       .  A
C1445      C1450   1.396       .  A
C1445      H1452   1.083       .  S
C1446      C1447   1.402       .  A
C1447      C1448   1.394       .  A
C1447      F1454   1.358       .  S
C1448      C1449   1.406       .  A
C1448      H1453   1.081       .  S
C1449      C1450   1.407       .  A
C1450      F1451   1.358       .  S
C1455      C1456   1.400       .  A
C1455      C1460   1.391       .  A
C1455      H1462   1.082       .  S
C1456      C1457   1.405       .  A
C1457      C1458   1.407       .  A
C1457      F1464   1.357       .  S
C1458      C1459   1.406       .  A
C1458      H1463   1.083       .  S
C1459      C1460   1.404       .  A
C1460      F1461   1.359       .  S
C1465      C1466   1.407       .  A
C1465      C1470   1.406       .  A
C1465      H1472   1.083       .  S
C1466      C1467   1.406       .  A
C1467      C1468   1.394       .  A
C1467      F1474   1.359       .  S
C1468      C1469   1.405       .  A
C1468      H1473   1.084       .  S
C1469      C1470   1.407       .  A
C1470      F1471   1.357       .  S
C1475      C1476   1.404       .  A
C1475      C1480   1.394       .  A
C1475      H1482   1.083       .  S
C1476      C1477   1.407       .  A
C1477      C1478   1.392       .  A
C1477      F1484   1.355       .  S
C1478      C1479   1.400       .  A
C1478      H1483   1.084       .  S
C1479      C1480   1.404       .  A
C1480      F1481   1.356       .  S
C1485      C1486   1.401       .  A
C1485      C1490   1.398       .  A
C1485      H1492   1.084       .  S
C1486      C1487   1.405       .  A
C1487      C1488   1.403       .  A
C1487      F1494   1.356       .  S
C1488      C1489   1.403       .  A
C1488      H1493   1.083       .  S
C1489      C1490   1.402       .  A
C1490      F1491   1.354       .  S
C1495      C1496   1.409       .  A
C1495      C1500   1.398       .  A
C1495      H1502   1.083       .  S
C1496      C1497   1.410       .  A
C1497      C1498   1.402       .  A
C1497      F1504   1.357       .  S
C1498      C1499   1.404       .  A
C1498      H1503   1.084       .  S
C1499      C1500   1.402       .  A
C1500      F1501   1.358       .  S
C1505      C1506   1.408       .  A
C1505      C1510   1.410       .  A
C1505      H1512   1.083       .  S
C1506      C1507   1.408       .  A
C1507      C1508   1.394       .  A
C1507      F1514   1.358       .  S
C1508      C1509   1.405       .  A
C1508      H1513   1.084       .  S
C1509      C1510   1.409       .  A
C1510      F1511   1.357       .  S
C1515      C1516   1.409       .  A
C1515      C1520   1.407       .  A
C1515      H1522   1.083       .  S
C1516      C1517   1.413       .  A
C1517      C1518   1.396       .  A
C1517      F1524   1.358       .  S
C1518      C1519   1.401       .  A
C1518      H1523   1.084       .  S
C1519      C1520   1.407       .  A
C1520      F1521   1.357       .  S
C1525      C1526   1.407       .  A
C1525      C1530   1.403   1_554  A
C1525      H1532   1.083       .  S
C1526      C1527   1.411       .  A
C1527      C1528   1.394   1_554  A
C1527      F1534   1.358       .  S
C1528      C1529   1.404       .  A
C1528      H1533   1.083       .  S
C1529      C1530   1.410       .  A
C1530      F1531   1.357       .  S
C1535      C1536   1.407       .  A
C1535      C1540   1.393       .  A
C1535      H1542   1.081       .  S
C1536      C1537   1.409       .  A
C1537      C1538   1.399       .  A
C1537      F1544   1.357       .  S
C1538      C1539   1.402       .  A
C1538      H1543   1.083       .  S
C1539      C1540   1.401       .  A
C1540      F1541   1.359       .  S
C1545      C1546   1.403       .  A
C1545      C1550   1.401       .  A
C1545      H1552   1.083       .  S
C1546      C1547   1.405       .  A
C1547      C1548   1.402       .  A
C1547      F1554   1.356       .  S
C1548      C1549   1.403       .  A
C1548      H1553   1.083       .  S
C1549      C1550   1.404       .  A
C1550      F1551   1.356       .  S
C1555      C1556   1.401       .  A
C1555      C1560   1.388       .  A
C1555      H1562   1.084       .  S
C1556      C1557   1.409       .  A
C1557      C1558   1.407       .  A
C1557      F1564   1.357       .  S
C1558      C1559   1.407       .  A
C1558      H1563   1.083       .  S
C1559      C1560   1.407       .  A
C1560      F1561   1.358       .  S
C1565      C1566   1.402       .  A
C1565      C1570   1.401       .  A
C1565      H1572   1.081       .  S
C1566      C1567   1.404       .  A
C1567      C1568   1.403       .  A
C1567      F1574   1.357       .  S
C1568      C1569   1.404       .  A
C1568      H1573   1.082       .  S
C1569      C1570   1.405       .  A
C1570      F1571   1.358       .  S
C1575      C1576   1.407       .  A
C1575      C1580   1.395       .  A
C1575      H1582   1.080       .  S
C1576      C1577   1.410       .  A
C1577      C1578   1.408       .  A
C1577      F1584   1.357       .  S
C1578      C1579   1.405       .  A
C1578      H1583   1.082       .  S
C1579      C1580   1.402       .  A
C1580      F1581   1.358       .  S
C1585      C1586   1.405       .  A
C1585      C1590   1.393       .  A
C1585      H1592   1.083       .  S
C1586      C1587   1.408       .  A
C1587      C1588   1.407       .  A
C1587      F1594   1.357       .  S
C1588      C1589   1.409       .  A
C1588      H1593   1.083       .  S
C1589      C1590   1.408       .  A
C1590      F1591   1.358       .  S
C1595      C1596   1.400       .  A
C1595      C1600   1.395       .  A
C1595      H1602   1.084       .  S
C1596      C1597   1.407       .  A
C1597      C1598   1.402       .  A
C1597      F1604   1.357       .  S
C1598      C1599   1.406       .  A
C1598      H1603   1.083       .  S
C1599      C1600   1.413       .  A
C1600      F1601   1.358       .  S
C1605      C1606   1.406       .  A
C1605      C1610   1.409       .  A
C1605      H1612   1.083       .  S
C1606      C1607   1.409       .  A
C1607      C1608   1.393       .  A
C1607      F1614   1.359       .  S
C1608      C1609   1.403       .  A
C1608      H1613   1.084       .  S
C1609      C1610   1.411       .  A
C1610      F1611   1.357       .  S
C1615      C1616   1.407       .  A
C1615      C1620   1.408       .  A
C1615      H1622   1.083       .  S
C1616      C1617   1.412       .  A
C1617      C1618   1.396       .  A
C1617      F1624   1.358       .  S
C1618      C1619   1.403       .  A
C1618      H1623   1.084       .  S
C1619      C1620   1.410       .  A
C1620      F1621   1.357       .  S
C1625      C1626   1.406       .  A
C1625      C1630   1.403       .  A
C1625      H1632   1.083       .  S
C1626      C1627   1.404       .  A
C1627      C1628   1.391       .  A
C1627      F1634   1.358       .  S
C1628      C1629   1.405       .  A
C1628      H1633   1.083       .  S
C1629      C1630   1.407       .  A
C1630      F1631   1.357       .  S
C1635      C1636   1.408       .  A
C1635      C1640   1.407   1_554  A
C1635      H1642   1.083       .  S
C1636      C1637   1.411       .  A
C1637      C1638   1.397   1_554  A
C1637      F1644   1.358       .  S
C1638      C1639   1.406       .  A
C1638      H1643   1.083       .  S
C1639      C1640   1.412       .  A
C1640      F1641   1.357       .  S
C1645      C1646   1.404       .  A
C1645      C1650   1.403       .  A
C1645      H1652   1.083       .  S
C1646      C1647   1.404       .  A
C1647      C1648   1.395       .  A
C1647      F1654   1.358       .  S
C1648      C1649   1.402       .  A
C1648      H1653   1.084       .  S
C1649      C1650   1.404       .  A
C1650      F1651   1.357       .  S
C1655      C1656   1.404       .  A
C1655      C1660   1.403       .  A
C1655      H1662   1.084       .  S
C1656      C1657   1.403       .  A
C1657      C1658   1.397       .  A
C1657      F1664   1.358       .  S
C1658      C1659   1.407       .  A
C1658      H1663   1.084       .  S
C1659      C1660   1.409       .  A
C1660      F1661   1.357       .  S
