geometry optimzed in LAMMPS
_audit_creation_date              2020-11-30 
_audit_creation_method            'lammps2cif' 
_symmetry_space_group_name_H-M    'P1' 
_symmetry_Int_Tables_number       1 
_symmetry_cell_setting            triclinic 
loop_ 
_symmetry_equiv_pos_as_xyz 
  x,y,z 
_cell_length_a                    37.69187920208756 
_cell_length_b                    37.454716087060426 
_cell_length_c                    39.07086733142637 
_cell_angle_alpha                 91.67393220814803 
_cell_angle_beta                  89.22108156112137 
_cell_angle_gamma                 120.38901590353053 
loop_ 
_atom_site_label 
_atom_site_type_symbol 
_atom_site_fract_x 
_atom_site_fract_y 
_atom_site_fract_z 
_atom_site_charge 
Fe1        Fe  0.46409880  0.89104863  0.11393480     1.65780
Fe2        Fe  0.43380278  0.79217758  0.12836345     1.73250
Fe3        Fe  0.53499961  0.86455827  0.13100794     1.54410
O4          O  0.54994731  0.90335789  0.08743228    -0.83150
O5          O  0.45740174  0.77946464  0.17154319    -0.81450
O6          O  0.49067578  0.89666435  0.06772887    -0.85650
O7          O  0.51909814  0.93736423  0.13052684    -0.80510
O8          O  0.53054723  0.81925457  0.09639994    -0.82280
O9          O  0.40348787  0.81464969  0.15925753    -0.85030
C10         C  0.53189701  0.93822716  0.16004569     0.95740
C11         C  0.52821006  0.90663270  0.06370077     1.03180
O12         O  0.47771071  0.84823773  0.12422812    -1.14010
O13         O  0.40517378  0.79512890  0.08451814    -0.76440
O14         O  0.40616456  0.85342653  0.09504427    -0.79930
O15         O  0.54136313  0.91122928  0.16765755    -0.80620
C16         C  0.38935625  0.81766362  0.08172527     0.94640
O17         O  0.44002989  0.88393640  0.16166171    -0.78580
O18         O  0.46340254  0.77086388  0.09746333    -0.83770
C19         C  0.49298873  0.79123710  0.18382137     0.97260
C20         C  0.49997608  0.78454511  0.08677335     1.03180
O21         O  0.52508892  0.82309595  0.17197931    -0.79410
C22         C  0.42113165  0.84916313  0.17601355     1.01480
Fe23       Fe  0.46646462  0.56196222  0.11075444     1.65780
Fe24       Fe  0.39590708  0.58852342  0.12984922     1.73250
Fe25       Fe  0.36870936  0.48757914  0.12898139     1.54410
O26         O  0.39324332  0.47323358  0.08428445    -0.83150
O27         O  0.36131245  0.56471879  0.17422666    -0.81450
O28         O  0.44523062  0.53352997  0.06489275    -0.85650
O29         O  0.46009202  0.50836188  0.12737580    -0.80510
O30         O  0.32778381  0.49055669  0.09555354    -0.82280
O31         O  0.44977108  0.62179340  0.15834243    -0.85030
C32         C  0.44670060  0.49457457  0.15650035     0.95740
C33         C  0.41786314  0.49560366  0.06038845     1.03180
O34         O  0.40941925  0.54582346  0.12331605    -1.14010
O35         O  0.42506182  0.61607754  0.08492776    -0.76440
O36         O  0.48411629  0.61880007  0.09149044    -0.79930
O37         O  0.40924933  0.48248704  0.16377678    -0.80620
C38         C  0.46317829  0.63295675  0.07928476     0.94640
O39         O  0.48506019  0.58866515  0.15784399    -0.78580
O40         O  0.34418794  0.55699659  0.10103098    -0.83770
C41         C  0.33706871  0.52859136  0.18543659     0.97260
C42         C  0.32272290  0.52064833  0.08828786     1.03180
O43         O  0.33632427  0.49656758  0.17153675    -0.79410
C44         C  0.46756154  0.60550109  0.17372766     1.01480
Fe45       Fe  0.14021371  0.56282933  0.11264747     1.65780
Fe46       Fe  0.23676136  0.63598789  0.13047255     1.73250
Fe47       Fe  0.15932792  0.65716111  0.13633285     1.54420
O48         O  0.12365664  0.63357776  0.09006298    -0.83150
O49         O  0.24792894  0.67382424  0.17396925    -0.81450
O50         O  0.13431764  0.58341341  0.06709040    -0.85650
O51         O  0.09205109  0.56927130  0.12677027    -0.80510
O52         O  0.20404815  0.70235130  0.10481925    -0.82280
O53         O  0.21876352  0.58524147  0.16127232    -0.85030
C54         C  0.08851237  0.57456830  0.15777121     0.95740
C55         C  0.12306540  0.61026468  0.06463394     1.03180
O56         O  0.18010223  0.62002063  0.12593900    -1.14010
O57         O  0.23606904  0.60346485  0.08630841    -0.76440
O58         O  0.17938593  0.54450580  0.09444763    -0.79930
O59         O  0.11282355  0.61091136  0.17005519    -0.80620
C60         C  0.21464482  0.56468197  0.08180504     0.94640
O61         O  0.14982132  0.54927010  0.16064827    -0.78580
O62         O  0.25307406  0.68492755  0.10023892    -0.83770
C63         C  0.23305136  0.69374152  0.18945860     0.97260
C64         C  0.23790636  0.70726284  0.09263022     1.03180
O65         O  0.19850235  0.68942021  0.17984517    -0.79410
C66         C  0.18397210  0.56571322  0.17631144     1.01480
Fe67       Fe  0.46800491  0.88636920  0.37941024     1.65780
Fe68       Fe  0.39358229  0.79017623  0.36170685     1.73250
Fe69       Fe  0.37322809  0.86846007  0.36527253     1.54420
O70         O  0.40088742  0.90356227  0.41239695    -0.83150
O71         O  0.35630998  0.78096422  0.31979774    -0.81450
O72         O  0.45158036  0.89131996  0.42741385    -0.85650
O73         O  0.46164628  0.93552628  0.37052836    -0.80510
O74         O  0.32974197  0.82305154  0.39718556    -0.82280
O75         O  0.44348355  0.80893296  0.32873920    -0.85030
C76         C  0.45364448  0.93951484  0.34073799     0.95740
C77         C  0.42649954  0.90384173  0.43460240     1.03180
O78         O  0.41013977  0.84707313  0.36925017    -1.14010
O79         O  0.42622507  0.79101686  0.40429166    -0.76440
O80         O  0.48543410  0.84549908  0.39220797    -0.79930
O81         O  0.41665523  0.91552817  0.33078283    -0.80620
C82         C  0.46488621  0.81200191  0.40730535     0.94640
O83         O  0.47832966  0.87809703  0.32956156    -0.78580
O84         O  0.34487864  0.77216850  0.39363197    -0.83770
C85         C  0.33565435  0.79625816  0.30800951     0.97260
C86         C  0.32374870  0.78758972  0.40529342     1.03180
O87         O  0.33884012  0.82967613  0.32148544    -0.79410
C88         C  0.46098436  0.84353954  0.31360611     1.01480
Fe89       Fe  0.46777501  0.56241885  0.37132674     1.65780
Fe90       Fe  0.43725316  0.62949686  0.35472173     1.73250
Fe91       Fe  0.53834436  0.65986902  0.34965696     1.54420
O92         O  0.55496601  0.63852180  0.39273251    -0.83150
O93         O  0.45904612  0.66444862  0.31037420    -0.81450
O94         O  0.49606441  0.58891705  0.41626571    -0.85650
O95         O  0.52223412  0.57123649  0.35375167    -0.80510
O96         O  0.53515708  0.70100095  0.38424064    -0.82280
O97         O  0.40537768  0.57416654  0.32612921    -0.85030
C98         C  0.53450842  0.58184757  0.32378287     0.95740
C99         C  0.53294779  0.61908507  0.41865283     1.03180
O100        O  0.48111400  0.61808727  0.35796515    -1.14010
O101        O  0.41100896  0.60031782  0.40003507    -0.76440
O102        O  0.41053916  0.54209254  0.39154081    -0.79930
O103        O  0.54406333  0.61805359  0.31459543    -0.80620
C104        C  0.39498341  0.56201597  0.40462896     0.94640
O105        O  0.44088650  0.54090188  0.32476047    -0.78580
O106        O  0.46823723  0.68176732  0.38434038    -0.83770
C107        C  0.49427433  0.68883897  0.29742541     0.97260
C108        C  0.50492779  0.70422331  0.39518778     1.03180
O109        O  0.52682426  0.68997991  0.30862206    -0.79410
C110        C  0.42223696  0.55646589  0.30985601     1.01480
Fe111      Fe  0.13822084  0.55930213  0.37958207     1.65780
Fe112      Fe  0.23588105  0.58808692  0.36204731     1.73250
Fe113      Fe  0.16293332  0.48673011  0.35851636     1.54410
O114        O  0.12538767  0.47280791  0.40373186    -0.83150
O115        O  0.24757137  0.56368739  0.31752186    -0.81450
O116        O  0.13277155  0.53300826  0.42513703    -0.85650
O117        O  0.09108341  0.50411702  0.36305948    -0.80510
O118        O  0.20828651  0.49053499  0.39090400    -0.82280
O119        O  0.21411710  0.61881267  0.33306533    -0.85030
C120        C  0.08986882  0.49098529  0.33305765     0.95740
C121        C  0.12281542  0.49525546  0.42840025     1.03180
O122        O  0.18000977  0.54455426  0.36695166    -1.14010
O123        O  0.23376841  0.61733972  0.40713784    -0.76440
O124        O  0.17667506  0.61786142  0.39885274    -0.79930
O125        O  0.11643420  0.48108845  0.32392057    -0.80620
C126        C  0.21210628  0.63402896  0.41155182     0.94640
O127        O  0.14526984  0.58274282  0.33230736    -0.78580
O128        O  0.25664030  0.55802067  0.39085938    -0.83770
C129        C  0.23518158  0.52792316  0.30392998     0.97260
C130        C  0.24290705  0.52113225  0.40040878     1.03180
O131        O  0.20313294  0.49584826  0.31558735    -0.79410
C132        C  0.17973352  0.60117267  0.31715645     1.01480
Fe133      Fe  0.58335396  0.45090345  0.38079096     1.65780
Fe134      Fe  0.60552670  0.37596723  0.36775190     1.73250
Fe135      Fe  0.50713331  0.35523280  0.36485554     1.54410
O136        O  0.49875031  0.38312104  0.41156769    -0.83150
O137        O  0.57629070  0.33345092  0.32714776    -0.81450
O138        O  0.56101701  0.43625900  0.42856062    -0.85650
O139        O  0.52783124  0.44321897  0.36936844    -0.80510
O140        O  0.50730801  0.31234917  0.39753115    -0.82280
O141        O  0.63622836  0.42227561  0.33236366    -0.85030
C142        C  0.51747738  0.43490136  0.33891135     0.95740
C143        C  0.52371505  0.40892825  0.43483477     1.03180
O144        O  0.56538949  0.39268528  0.37192191    -1.14010
O145        O  0.64074420  0.41422223  0.40857704    -0.76440
O146        O  0.64190050  0.47116613  0.39520494    -0.79930
O147        O  0.50552981  0.39784760  0.32887720    -0.80620
C148        C  0.65811179  0.45332382  0.40925030     0.94640
O149        O  0.60269746  0.45773595  0.33136349    -0.78580
O150        O  0.57397785  0.33070564  0.40218803    -0.83770
C151        C  0.54145031  0.31406692  0.31211514     0.97260
C152        C  0.53614977  0.30825422  0.41008540     1.03180
O153        O  0.51203212  0.32013525  0.32184689    -0.79410
C154        C  0.62071002  0.44066613  0.31660608     1.01480
Fe155      Fe  0.90282483  0.45012960  0.38298211     1.65780
Fe156      Fe  0.80796697  0.42670299  0.36116478     1.73250
Fe157      Fe  0.88804660  0.52559152  0.35482876     1.54420
O158        O  0.92410904  0.54244764  0.40005606    -0.83150
O159        O  0.79904916  0.44947657  0.31576950    -0.81450
O160        O  0.90816969  0.48309794  0.42632770    -0.85650
O161        O  0.95290648  0.50225711  0.36663195    -0.80510
O162        O  0.84458006  0.52944523  0.38626545    -0.82280
O163        O  0.82507973  0.38878002  0.33446375    -0.85030
C164        C  0.95738849  0.50982208  0.33557624     0.95740
C165        C  0.92047065  0.52174872  0.42691743     1.03180
O166        O  0.86524017  0.46747178  0.36614229    -1.14010
O167        O  0.80555769  0.39936824  0.40722572    -0.76440
O168        O  0.86158509  0.39555202  0.40390613    -0.79930
O169        O  0.93489548  0.52276814  0.32270218    -0.80620
C170        C  0.82576402  0.38218569  0.41478374     0.94640
O171        O  0.89352272  0.41861917  0.33732051    -0.78580
O172        O  0.79254270  0.46341628  0.38842960    -0.83770
C173        C  0.81407088  0.48435299  0.30130347     0.97260
C174        C  0.80961334  0.50144952  0.39733273     1.03180
O175        O  0.84831815  0.51566071  0.31173678    -0.79410
C176        C  0.86016582  0.40158168  0.32046091     1.01480
Fe177      Fe  0.57243001  0.12314305  0.37808742     1.65780
Fe178      Fe  0.64304203  0.22145335  0.36350055     1.73250
Fe179      Fe  0.67111776  0.14921867  0.36491666     1.54410
O180        O  0.64322031  0.11081746  0.40893991    -0.83150
O181        O  0.68122400  0.23292981  0.32110809    -0.81450
O182        O  0.58941502  0.11790226  0.42536313    -0.85650
O183        O  0.58140742  0.07629957  0.36290636    -0.80510
O184        O  0.70979478  0.19491695  0.40012098    -0.82280
O185        O  0.59223220  0.19883024  0.33133317    -0.85030
C186        C  0.59618603  0.07552135  0.33421505     0.95740
C187        C  0.61611270  0.10762314  0.43141188     1.03180
O188        O  0.62995570  0.16554316  0.36901997    -1.14010
O189        O  0.60982398  0.21896474  0.40674133    -0.76440
O190        O  0.55187953  0.16145430  0.39561943    -0.79930
O191        O  0.63338054  0.10258154  0.32788441    -0.80620
C192        C  0.57146305  0.19627522  0.41052147     0.94640
O193        O  0.55908722  0.12962829  0.32965553    -0.78580
O194        O  0.69218927  0.24353064  0.39535394    -0.83770
C195        C  0.70564329  0.22104103  0.30996333     0.97260
C196        C  0.71363170  0.22991500  0.40833603     1.03180
O197        O  0.70550263  0.18985202  0.32331744    -0.79410
C198        C  0.57611948  0.16409902  0.31496855     1.01480
Fe199      Fe  0.58404753  0.44840472  0.11248132     1.65780
Fe200      Fe  0.65439886  0.42225618  0.12731378     1.73250
Fe201      Fe  0.67790845  0.52253767  0.13399688     1.54410
O202        O  0.65574286  0.53452504  0.08763584    -0.83150
O203        O  0.69215932  0.44889754  0.17021154    -0.81450
O204        O  0.60432713  0.47302370  0.06626041    -0.85650
O205        O  0.59225828  0.50462147  0.12507613    -0.80510
O206        O  0.72318968  0.52183251  0.10276156    -0.82280
O207        O  0.60404593  0.39064207  0.15927158    -0.85030
C208        C  0.59661439  0.51359753  0.15595195     0.95740
C209        C  0.63155573  0.51125766  0.06305044     1.03180
O210        O  0.64034898  0.46444080  0.12373714    -1.14010
O211        O  0.62061642  0.38978547  0.08393919    -0.76440
O212        O  0.56361947  0.38950757  0.09590829    -0.79930
O213        O  0.63194187  0.52420951  0.16826180    -0.80620
C214        C  0.58191067  0.37285671  0.08197175     0.94640
O215        O  0.57223578  0.42753463  0.16130875    -0.78580
O216        O  0.70350565  0.45427666  0.09621069    -0.83770
C217        C  0.71170743  0.48378272  0.18608048     0.97260
C218        C  0.72764005  0.49238813  0.09012067     1.03180
O219        O  0.70810979  0.51461415  0.17708673    -0.79410
C220        C  0.58685054  0.40782535  0.17564901     1.01480
Fe221      Fe  0.57775156  0.12226533  0.11093145     1.65780
Fe222      Fe  0.60077188  0.21840016  0.13211676     1.73250
Fe223      Fe  0.50165183  0.13940675  0.13277586     1.54420
O224        O  0.49065645  0.10429744  0.08501647    -0.83150
O225        O  0.57461492  0.22720944  0.17661118    -0.81450
O226        O  0.55243528  0.11691231  0.06462479    -0.85650
O227        O  0.52288843  0.07280151  0.12280988    -0.80510
O228        O  0.50202808  0.18432392  0.10189063    -0.82280
O229        O  0.63435305  0.20018749  0.16130153    -0.85030
C230        C  0.51307488  0.06865823  0.15345664     0.95740
C231        C  0.51435340  0.10455043  0.06042152     1.03180
O232        O  0.55993676  0.16127523  0.12491264    -1.14010
O233        O  0.63123228  0.21897230  0.08736793    -0.76440
O234        O  0.63513174  0.16328751  0.09455877    -0.79930
O235        O  0.50020457  0.09217229  0.16552896    -0.80620
C236        C  0.64883909  0.19824368  0.08194287     0.94640
O237        O  0.60038288  0.13106722  0.15950613    -0.78580
O238        O  0.56820060  0.23561785  0.10316170    -0.83770
C239        C  0.53912786  0.21185342  0.19030268     0.97260
C240        C  0.53140953  0.21944709  0.09251373     1.03180
O241        O  0.50834581  0.17834096  0.17765809    -0.79410
C242        C  0.61850837  0.16536797  0.17589091     1.01480
Fe243      Fe  0.90944144  0.44799983  0.12012323     1.65780
Fe244      Fe  0.81119516  0.38121193  0.13796805     1.73250
Fe245      Fe  0.88008558  0.34869759  0.13593309     1.54410
O246        O  0.91729414  0.37173180  0.09076806    -0.83150
O247        O  0.79864745  0.34484535  0.18106138    -0.81450
O248        O  0.91204623  0.42589924  0.07322009    -0.85650
O249        O  0.95460509  0.43732515  0.13399653    -0.80510
O250        O  0.83390929  0.30919446  0.10213384    -0.82280
O251        O  0.83628875  0.43478612  0.16864683    -0.85030
C252        C  0.95573243  0.42483312  0.16308169     0.95740
C253        C  0.92000936  0.39698238  0.06757470     1.03180
O254        O  0.86597588  0.39159351  0.13137714    -1.14010
O255        O  0.81428053  0.41287246  0.09444661    -0.76440
O256        O  0.87303575  0.47016626  0.10358855    -0.79930
O257        O  0.92840319  0.38818118  0.17093807    -0.80620
C258        C  0.83772598  0.45123221  0.09050610     0.94640
O259        O  0.90491994  0.46590771  0.16847147    -0.78580
O260        O  0.78760580  0.32997198  0.10680643    -0.83770
C261        C  0.80910491  0.31981552  0.19233179     0.97260
C262        C  0.80029711  0.30697701  0.09373634     1.03180
O263        O  0.83939168  0.31779186  0.17860548    -0.79410
C264        C  0.87080972  0.45017942  0.18411078     1.01480
Fe265      Fe  0.44948056  0.86838187  0.63183465     1.65780
Fe266      Fe  0.36134903  0.78066016  0.62323454     1.73250
Fe267      Fe  0.36094442  0.86887210  0.63578433     1.54410
O268        O  0.41118814  0.92486780  0.65803279    -0.83150
O269        O  0.33840328  0.79228785  0.58100271    -0.81450
O270        O  0.44309683  0.89490357  0.67472173    -0.85650
O271        O  0.44921791  0.91018562  0.59582389    -0.82300
O272        O  0.33796981  0.83856906  0.68211880    -0.82280
O273        O  0.40544302  0.77701631  0.59317067    -0.85030
C274        C  0.41985667  0.90973617  0.57865167     0.95740
C275        C  0.44350621  0.92760242  0.67035784     1.03180
O276        O  0.39129131  0.83920971  0.62965472    -1.14010
O277        O  0.38533199  0.77163348  0.66557832    -0.76440
O278        O  0.44886861  0.82676791  0.66632728    -0.79930
O279        O  0.38336839  0.89459459  0.59003595    -0.80620
C280        C  0.41753343  0.79786377  0.68140849     0.94640
O281        O  0.45975781  0.84034900  0.59068023    -0.78580
O282        O  0.31462876  0.77639019  0.65661181    -0.83770
C283        C  0.30700818  0.79508744  0.58698842     0.97260
C284        C  0.31630198  0.79885293  0.68277023     1.03180
O285        O  0.30831298  0.82066282  0.61012036    -0.79410
C286        C  0.44207041  0.80209694  0.58372415     1.01480
Fe287      Fe  0.47398235  0.56309937  0.60813812     1.65780
Fe288      Fe  0.44128488  0.62324796  0.64259922     1.73250
Fe289      Fe  0.54310719  0.65897924  0.63424105     1.54420
O290        O  0.55362058  0.61474497  0.66080983    -0.83150
O291        O  0.46548100  0.67787874  0.61823101    -0.81450
O292        O  0.53304987  0.57800473  0.61474573    -0.85650
O293        O  0.49377031  0.59209872  0.56284357    -0.80510
O294        O  0.53552417  0.68350161  0.68187655    -0.82280
O295        O  0.41038895  0.59662171  0.59751028    -0.85030
C296        C  0.53054143  0.62242527  0.55921761     0.95740
C297        C  0.54365559  0.58058228  0.64505213     1.03180
O298        O  0.48600314  0.61641693  0.62822410    -1.14010
O299        O  0.41663856  0.56673967  0.66653354    -0.76440
O300        O  0.45815409  0.54129600  0.65676287    -0.79930
O301        O  0.55471346  0.64316208  0.58436615    -0.80620
C302        C  0.43838796  0.55191715  0.67705558     0.94640
O303        O  0.41236979  0.53920354  0.59714139    -0.78580
O304        O  0.46765529  0.65383412  0.68842805    -0.83770
C305        C  0.49976653  0.70265077  0.60446580     0.97260
C306        C  0.50408871  0.67919560  0.69850533     1.03180
O307        O  0.53270660  0.70134099  0.60868482    -0.79410
C308        C  0.39436585  0.55864041  0.58998887     1.01480
Fe309      Fe  0.14118765  0.56586268  0.61975679     1.65780
Fe310      Fe  0.23385429  0.58365257  0.64150161     1.73250
Fe311      Fe  0.15511855  0.48533958  0.63765367     1.54420
O312        O  0.09910665  0.47521938  0.66242473    -0.83150
O313        O  0.24617776  0.55964582  0.59876284    -0.81450
O314        O  0.09874046  0.53380786  0.65436958    -0.85650
O315        O  0.11165198  0.52159921  0.58129213    -0.80510
O316        O  0.18393323  0.49188490  0.68549505    -0.82280
O317        O  0.23555243  0.63185561  0.61505351    -0.85030
C318        C  0.11387763  0.49020715  0.57104261     0.95740
C319        C  0.08361855  0.49884861  0.66720710     1.03180
O320        O  0.17595972  0.54410705  0.63306901    -1.14010
O321        O  0.21707203  0.60335546  0.68428004    -0.76440
O322        O  0.16888329  0.61030066  0.65860046    -0.79930
O323        O  0.12848148  0.47321531  0.58945091    -0.80620
C324        C  0.18317303  0.60296493  0.68519950     0.94640
O325        O  0.18062065  0.60172181  0.58259394    -0.78580
O326        O  0.24445464  0.54485211  0.67135050    -0.83770
C327        C  0.23841702  0.52230264  0.59653405     0.97260
C328        C  0.22257557  0.51483152  0.69072627     1.03180
O329        O  0.20845697  0.49242919  0.61251640    -0.79410
C330        C  0.21353627  0.63332097  0.59162939     1.01480
Fe331      Fe  0.45363189  0.86938189  0.87992397     1.65780
Fe332      Fe  0.44441192  0.77678703  0.87255174     1.73250
Fe333      Fe  0.53645398  0.86016252  0.85886750     1.54420
O334        O  0.53977404  0.91034213  0.83028778    -0.83150
O335        O  0.47823368  0.78204942  0.91409660    -0.81450
O336        O  0.47944891  0.90558096  0.84028845    -0.85650
O337        O  0.50091416  0.90844167  0.91316118    -0.80510
O338        O  0.52374898  0.82321275  0.81379511    -0.82280
O339        O  0.39793331  0.77529010  0.90286309    -0.85030
C340        C  0.53401578  0.90984711  0.92227305     0.95740
C341        C  0.51361082  0.92222373  0.82554483     1.03180
O342        O  0.47833086  0.83620994  0.86942061    -1.14010
O343        O  0.41344112  0.77661214  0.83136727    -0.76440
O344        O  0.40595698  0.83132331  0.84539034    -0.79930
O345        O  0.55167136  0.89466890  0.90405584    -0.80620
C346        C  0.40309616  0.80296137  0.82429565     0.94640
O347        O  0.42443982  0.83869257  0.92284433    -0.78580
O348        O  0.48178485  0.76453471  0.83959229    -0.83770
C349        C  0.51438503  0.78852183  0.90987850     0.97260
C350        C  0.50438341  0.78360850  0.81412759     1.03180
O351        O  0.53879793  0.81366381  0.88735811    -0.79410
C352        C  0.39542564  0.80213459  0.92136448     1.01480
Fe353      Fe  0.45643791  0.56595245  0.87099897     1.65780
Fe354      Fe  0.38091698  0.58563415  0.85676858     1.73250
Fe355      Fe  0.35889157  0.48605489  0.85692231     1.54420
O356        O  0.40111007  0.47427415  0.82778849    -0.83150
O357        O  0.34775081  0.56233617  0.89982772    -0.81450
O358        O  0.46141618  0.53351840  0.83171807    -0.85650
O359        O  0.44537588  0.52066783  0.90590749    -0.80510
O360        O  0.33195625  0.49065883  0.81201150    -0.82280
O361        O  0.42927033  0.63204723  0.88561397    -0.85030
C362        C  0.41234945  0.49105724  0.91800213     0.95740
C363        C  0.43938092  0.49729228  0.81983456     1.03180
O364        O  0.39857544  0.54512677  0.86107198    -1.14010
O365        O  0.41527083  0.60709023  0.81355988    -0.76440
O366        O  0.47097918  0.61280202  0.83680392    -0.79930
O367        O  0.37817537  0.47540453  0.90250459    -0.80620
C368        C  0.44859140  0.60661875  0.81069895     0.94640
O369        O  0.45729156  0.60123380  0.91205792    -0.78580
O370        O  0.32942940  0.54743676  0.82565715    -0.83770
C371        C  0.31875755  0.52529259  0.90371679     0.97260
C372        C  0.31852141  0.51520209  0.80679688     1.03180
O373        O  0.31593338  0.49430941  0.88630408    -0.79410
C374        C  0.45433314  0.63260825  0.90728625     1.01480
Fe375      Fe  0.15246701  0.57351251  0.87574220     1.65780
Fe376      Fe  0.24468298  0.65190828  0.85422923     1.73250
Fe377      Fe  0.16269308  0.66700030  0.85921889     1.54410
O378        O  0.10860834  0.61880141  0.83175444    -0.83150
O379        O  0.25601261  0.68927930  0.89565765    -0.81450
O380        O  0.11126972  0.56142212  0.84003551    -0.85650
O381        O  0.11858211  0.58370076  0.91210396    -0.80510
O382        O  0.19291117  0.69400477  0.81304454    -0.82280
O383        O  0.24767621  0.60837159  0.88429149    -0.85030
C384        C  0.11889250  0.61599031  0.92317878     0.95740
C385        C  0.09484811  0.57954696  0.82667039     1.03180
O386        O  0.18600389  0.63110950  0.86257410    -1.14010
O387        O  0.23076537  0.61354546  0.81230867    -0.76440
O388        O  0.18399959  0.55904852  0.83934695    -0.79930
O389        O  0.13391488  0.64886176  0.90621104    -0.80620
C390        C  0.19700149  0.57951885  0.81205287     0.94640
O391        O  0.19079668  0.58069775  0.91466226    -0.78580
O392        O  0.25356450  0.69905476  0.82170299    -0.83770
C393        C  0.24371599  0.71460534  0.90279132     0.97260
C394        C  0.23050975  0.70782388  0.80486115     1.03180
O395        O  0.21338530  0.71416463  0.88757998    -0.79410
C396        C  0.22552168  0.58548804  0.90824982     1.01480
Fe397      Fe  0.59374861  0.43813309  0.62795219     1.65780
Fe398      Fe  0.60571256  0.35602336  0.62459514     1.73250
Fe399      Fe  0.51215656  0.34303871  0.63631934     1.54420
O400        O  0.50313895  0.39039686  0.66012950    -0.83150
O401        O  0.57151422  0.32530652  0.58288480    -0.81450
O402        O  0.56643832  0.43459237  0.67359697    -0.85650
O403        O  0.54419741  0.42962740  0.59687740    -0.80510
O404        O  0.52396405  0.32357816  0.68246171    -0.82280
O405        O  0.64722146  0.40183328  0.59240538    -0.85030
C406        C  0.51821385  0.39765634  0.57914557     0.95740
C407        C  0.52993627  0.42573053  0.67269319     1.03180
O408        O  0.57096826  0.37946113  0.62951055    -1.14010
O409        O  0.63989641  0.38830301  0.66586684    -0.76440
O410        O  0.64413604  0.44847791  0.65686584    -0.79930
O411        O  0.50264701  0.36108252  0.59013535    -0.80620
C412        C  0.64396469  0.42224208  0.67705149     0.94640
O413        O  0.62455752  0.44513932  0.58312043    -0.78580
O414        O  0.56893597  0.30761630  0.65918667    -0.83770
C415        C  0.53676338  0.29344532  0.58669191     0.97260
C416        C  0.54452613  0.30482561  0.68369703     1.03180
O417        O  0.51212602  0.29255014  0.61000561    -0.79410
C418        C  0.65005593  0.43321250  0.57791914     1.01480
Fe419      Fe  0.90638036  0.45919383  0.61305204     1.65780
Fe420      Fe  0.80913495  0.42503953  0.63599144     1.73250
Fe421      Fe  0.87989422  0.52745698  0.63835774     1.54410
O422        O  0.93052282  0.53292563  0.67043810    -0.83150
O423        O  0.78736299  0.45180566  0.60428038    -0.81450
O424        O  0.95039779  0.51803386  0.62438834    -0.85650
O425        O  0.90505494  0.48260591  0.56729964    -0.80510
O426        O  0.84233445  0.51809760  0.68255067    -0.82280
O427        O  0.81011881  0.39095972  0.59364477    -0.85030
C428        C  0.91292765  0.52004644  0.56516015     0.95740
C429        C  0.95567823  0.52415514  0.65550695     1.03180
O430        O  0.86333818  0.47009922  0.62834325    -1.14010
O431        O  0.83466463  0.40105017  0.66869514    -0.76440
O432        O  0.90308318  0.43905391  0.66193780    -0.79930
O433        O  0.91243984  0.54217764  0.59095058    -0.80620
C434        C  0.87140431  0.42120470  0.68064799     0.94640
O435        O  0.87150259  0.39870542  0.59793396    -0.78580
O436        O  0.79637898  0.45091961  0.67825849    -0.83770
C437        C  0.79919405  0.48885850  0.59582915     0.97260
C438        C  0.80957146  0.48601057  0.69287771     1.03180
O439        O  0.83124281  0.52096269  0.60810071    -0.79410
C440        C  0.83467726  0.37776129  0.58875115     1.01480
Fe441      Fe  0.58927049  0.13077957  0.63257098     1.65780
Fe442      Fe  0.67168709  0.22264564  0.62220803     1.73250
Fe443      Fe  0.68201455  0.13978493  0.63209257     1.54410
O444        O  0.63539184  0.08198716  0.65343496    -0.83150
O445        O  0.69779758  0.21278170  0.57996701    -0.81450
O446        O  0.60298534  0.11019245  0.67398444    -0.85650
O447        O  0.59283016  0.09050260  0.59433626    -0.80510
O448        O  0.70443031  0.17233054  0.67874597    -0.82280
O449        O  0.62514884  0.21817986  0.59084412    -0.85030
C450        C  0.62300719  0.09482606  0.57515827     0.95740
C451        C  0.60370765  0.07807175  0.66860197     1.03180
O452        O  0.64700894  0.16467681  0.62819386    -1.14010
O453        O  0.64432083  0.23148778  0.66413141    -0.76440
O454        O  0.58659675  0.17119606  0.66838211    -0.79930
O455        O  0.66003641  0.11251981  0.58574359    -0.80620
C456        C  0.61811086  0.20217738  0.68200704     0.94640
O457        O  0.57233248  0.15360332  0.59360927    -0.78580
O458        O  0.71993052  0.23320444  0.65632045    -0.83770
C459        C  0.73093735  0.21347772  0.58520761     0.97260
C460        C  0.72301378  0.21217052  0.68049827     1.03180
O461        O  0.73228034  0.18996117  0.60753264    -0.79410
C462        C  0.58849610  0.19010368  0.58321540     1.01480
Fe463      Fe  0.56779753  0.44450307  0.87157100     1.65780
Fe464      Fe  0.63862309  0.41774522  0.86099901     1.73250
Fe465      Fe  0.66217900  0.51724355  0.85258037     1.54410
O466        O  0.61753188  0.51688005  0.81731894    -0.83150
O467        O  0.68781192  0.45179932  0.89160436    -0.81450
O468        O  0.57781130  0.50064908  0.85992793    -0.85650
O469        O  0.58689102  0.47148598  0.91875063    -0.80510
O470        O  0.68985363  0.50576371  0.80972059    -0.82280
O471        O  0.60423245  0.39007606  0.90454394    -0.85030
C472        C  0.61663685  0.50897637  0.92312123     0.95740
C473        C  0.58214285  0.50677544  0.82899336     1.03180
O474        O  0.62465114  0.46011370  0.86302931    -1.14010
O475        O  0.58715917  0.38358517  0.83101509    -0.76440
O476        O  0.55940422  0.42210532  0.82097024    -0.79930
O477        O  0.64025502  0.53150924  0.89869978    -0.80620
C478        C  0.57662639  0.40200135  0.81021689     0.94640
O479        O  0.54698623  0.38584403  0.88769257    -0.78580
O480        O  0.67680285  0.44149211  0.81789966    -0.83770
C481        C  0.71198180  0.49023259  0.89743545     0.97260
C482        C  0.69518444  0.47543560  0.80176931     1.03180
O483        O  0.70788008  0.51882854  0.88412077    -0.79410
C484        C  0.56530180  0.37118463  0.90357713     1.01480
Fe485      Fe  0.59542090  0.13930052  0.87588136     1.65780
Fe486      Fe  0.59917810  0.22873540  0.86557619     1.73250
Fe487      Fe  0.51064051  0.14098340  0.85189210     1.54420
O488        O  0.51045383  0.08862709  0.82690208    -0.83150
O489        O  0.56347967  0.22482051  0.90576466    -0.81450
O490        O  0.57351794  0.10045009  0.83564487    -0.85650
O491        O  0.54744109  0.10020797  0.90806469    -0.80510
O492        O  0.52443473  0.17237224  0.80518520    -0.82280
O493        O  0.64570367  0.23534524  0.89796122    -0.85030
C494        C  0.51432762  0.09931275  0.91731462     0.95740
C495        C  0.53859971  0.07910193  0.82242209     1.03180
O496        O  0.56843279  0.16887899  0.86345901    -1.14010
O497        O  0.63279459  0.22792137  0.82616603    -0.76440
O498        O  0.64396715  0.17718712  0.84261413    -0.79930
O499        O  0.49607160  0.11240747  0.89866160    -0.80620
C500        C  0.64589789  0.20305793  0.82064795     0.94640
O501        O  0.62047012  0.17390487  0.91919784    -0.78580
O502        O  0.56051204  0.23465243  0.82999991    -0.83770
C503        C  0.52684826  0.21583247  0.90037734     0.97260
C504        C  0.54091182  0.21176253  0.80408639     1.03180
O505        O  0.50442013  0.18879664  0.87726340    -0.79410
C506        C  0.64868135  0.21069629  0.91754334     1.01480
Fe507      Fe  0.88152548  0.44265806  0.88302981     1.65780
Fe508      Fe  0.79305086  0.36301637  0.85492594     1.73250
Fe509      Fe  0.87809497  0.35365829  0.85688196     1.54410
O510        O  0.93024628  0.40381416  0.83062854    -0.83150
O511        O  0.78333905  0.32732498  0.89542200    -0.81450
O512        O  0.92802712  0.45864345  0.85134087    -0.85650
O513        O  0.91004815  0.42958256  0.92122897    -0.80510
O514        O  0.84876801  0.32746659  0.80957081    -0.82280
O515        O  0.78590724  0.40658132  0.88372094    -0.85030
C516        C  0.91612786  0.39971283  0.92608311     0.95740
C517        C  0.94380556  0.44323575  0.83199616     1.03180
O518        O  0.85168161  0.38638252  0.86455648    -1.14010
O519        O  0.80821590  0.40087116  0.81492415    -0.76440
O520        O  0.85422547  0.45759730  0.84379972    -0.79930
O521        O  0.90783379  0.37125187  0.90378805    -0.80620
C522        C  0.84068639  0.43629682  0.81583736     0.94640
O523        O  0.83808511  0.43318405  0.91877918    -0.78580
O524        O  0.78603072  0.31488222  0.82188369    -0.83770
C525        C  0.79784746  0.30369909  0.90081775     0.97260
C526        C  0.81053685  0.30978286  0.80262659     1.03180
O527        O  0.82848029  0.30530679  0.88418376    -0.79410
C528        C  0.80552737  0.43046384  0.90864216     1.01480
C529        C  0.71083375  0.20597485  0.91425549    -0.14820
C530        C  0.68897359  0.22231573  0.93148853     0.07330
C531        C  0.71029737  0.25784377  0.95229389    -0.14820
C532        C  0.75316549  0.28067437  0.95066403    -0.14820
C533        C  0.77344751  0.27063325  0.92484561     0.07330
C534        C  0.75347220  0.23031459  0.91090315    -0.14820
H535        H  0.69466658  0.17804435  0.89845115     0.11320
H536        H  0.69397509  0.27056810  0.96619270     0.11320
H537        H  0.76871557  0.31112435  0.96296242     0.11320
H538        H  0.76866633  0.22117566  0.89180165     0.11320
C539        C  0.78513201  0.51604778  0.89932010    -0.14820
C540        C  0.74826667  0.49965827  0.91768908     0.07330
C541        C  0.74151870  0.47203653  0.94412496    -0.14820
C542        C  0.76364723  0.45130948  0.94437659    -0.14820
C543        C  0.79474759  0.46120357  0.92026190     0.07330
C544        C  0.80807661  0.49627578  0.90021226    -0.14820
H545        H  0.79153283  0.53791092  0.87927254     0.11320
H546        H  0.71368384  0.45981080  0.95927688     0.11320
H547        H  0.75335305  0.42467789  0.96034714     0.11320
H548        H  0.83263946  0.50473708  0.88180837     0.11320
C549        C  0.50676874  0.29989617  0.89561191    -0.14820
C550        C  0.54083268  0.32855466  0.91544354     0.07330
C551        C  0.55562789  0.31407728  0.94098410    -0.14820
C552        C  0.54141624  0.27177691  0.94239501    -0.14820
C553        C  0.51541711  0.24473581  0.91622566     0.07330
C554        C  0.49406498  0.25786970  0.89594091    -0.14820
H555        H  0.49406395  0.31033959  0.87620723     0.11320
H556        H  0.58095185  0.33553485  0.95729320     0.11320
H557        H  0.55698807  0.26181932  0.95945562     0.11320
H558        H  0.47311116  0.23757345  0.87616517     0.11320
C559        C  0.66226103  0.23704126  0.73319049    -0.14820
C560        C  0.62863337  0.20180807  0.71807632     0.07330
C561        C  0.61007829  0.16461046  0.73574213    -0.14820
C562        C  0.62415999  0.16292028  0.76805598    -0.14820
C563        C  0.65426659  0.19916111  0.78472088     0.07330
C564        C  0.67485335  0.23575577  0.76627362    -0.14820
H565        H  0.67812137  0.26597897  0.71986003     0.11320
H566        H  0.58415124  0.13689675  0.72499780     0.11320
H567        H  0.60751045  0.13441395  0.78167514     0.11320
H568        H  0.69767837  0.26432371  0.77878699     0.11320
C569        C  0.77317334  0.27958887  0.71063410    -0.14820
C570        C  0.74938539  0.23597326  0.71103780     0.07330
C571        C  0.74891343  0.21660039  0.74164249    -0.14820
C572        C  0.77031001  0.24030627  0.77110623    -0.14820
C573        C  0.79329633  0.28389756  0.77056627     0.07330
C574        C  0.79436647  0.30300612  0.73990954    -0.14820
H575        H  0.77431271  0.29599549  0.68790004     0.11320
H576        H  0.73058101  0.18325777  0.74329719     0.11320
H577        H  0.76780288  0.22464204  0.79464960     0.11320
H578        H  0.80987589  0.33631412  0.73902168     0.11320
C579        C  0.76518510  0.45280687  0.74425777    -0.14820
C580        C  0.78465860  0.48729300  0.72296709     0.07330
C581        C  0.77449613  0.51853092  0.72784221    -0.14820
C582        C  0.74521934  0.51481402  0.75288176    -0.14820
C583        C  0.72526407  0.47975171  0.77377428     0.07330
C584        C  0.73632296  0.44917349  0.76912666    -0.14820
H585        H  0.77187634  0.42796157  0.74127139     0.11320
H586        H  0.78801488  0.54506814  0.71147745     0.11320
H587        H  0.73793327  0.53924011  0.75565140     0.11320
H588        H  0.72250587  0.42199382  0.78475963     0.11320
C589        C  0.88103245  0.40821842  0.74068669    -0.14820
C590        C  0.87729996  0.43266297  0.71681998     0.07330
C591        C  0.87603516  0.46801252  0.72781666    -0.14820
C592        C  0.86924387  0.47397998  0.76209483    -0.14820
C593        C  0.86636997  0.44546652  0.78549938     0.07330
C594        C  0.87596505  0.41516489  0.77500502    -0.14820
H595        H  0.88430655  0.38207026  0.73279771     0.11320
H596        H  0.87712300  0.48906687  0.70949696     0.11320
H597        H  0.86233453  0.49789741  0.76949056     0.11320
H598        H  0.87458922  0.39389584  0.79314031     0.11320
C599        C  0.76351816  0.27450777  0.54862780    -0.14820
C600        C  0.76843199  0.24943286  0.57213410     0.07330
C601        C  0.80419742  0.26694010  0.59216570    -0.14820
C602        C  0.82964807  0.30989319  0.59401003    -0.14820
C603        C  0.81912064  0.33523672  0.57608101     0.07330
C604        C  0.78790279  0.31745953  0.55148286    -0.14820
H605        H  0.73677161  0.26154331  0.53207980     0.11320
H606        H  0.80909888  0.24841507  0.61019126     0.11320
H607        H  0.85410530  0.32323495  0.61288304     0.11320
H608        H  0.77999220  0.33660382  0.53686878     0.11320
C609        C  0.54766926  0.24534133  0.71096860    -0.14820
C610        C  0.54004355  0.27857534  0.71404905     0.07330
C611        C  0.52981684  0.28737805  0.74682528    -0.14820
C612        C  0.52949372  0.26534553  0.77571703    -0.14820
C613        C  0.53742935  0.23238035  0.77266132     0.07330
C614        C  0.54555509  0.22212269  0.73965961    -0.14820
H615        H  0.55540511  0.23728682  0.68625681     0.11320
H616        H  0.52373632  0.31256353  0.75042894     0.11320
H617        H  0.52326433  0.27432417  0.80066730     0.11320
H618        H  0.55185786  0.19709662  0.73625680     0.11320
C619        C  0.62483953  0.45190559  0.72688043    -0.14820
C620        C  0.63771802  0.42494313  0.71398958     0.07330
C621        C  0.63199562  0.39185759  0.73398697    -0.14820
C622        C  0.60982740  0.38313094  0.76416390    -0.14820
C623        C  0.59357771  0.40774188  0.77556828     0.07330
C624        C  0.60189174  0.44271499  0.75703391    -0.14820
H625        H  0.62965549  0.47818536  0.71237357     0.11320
H626        H  0.64213127  0.37078522  0.72516121     0.11320
H627        H  0.60548507  0.35700378  0.77866866     0.11320
H628        H  0.59109807  0.46314923  0.76593882     0.11320
C629        C  0.50854372  0.21784303  0.58474817    -0.14820
C630        C  0.53057437  0.25572766  0.56837014     0.07330
C631        C  0.56054304  0.26060199  0.54392981    -0.14820
C632        C  0.57718187  0.23478958  0.54444502    -0.14820
C633        C  0.56123652  0.20209688  0.56714737     0.07330
C634        C  0.52371034  0.19066948  0.58378520    -0.14820
H635        H  0.48455501  0.21258171  0.60296037     0.11320
H636        H  0.57686275  0.28886144  0.52971684     0.11320
H637        H  0.60550680  0.24358060  0.53075853     0.11320
H638        H  0.51031476  0.16491773  0.60100795     0.11320
C639        C  0.71226927  0.50071390  0.57605925    -0.14820
C640        C  0.68873510  0.46107249  0.56068916     0.07330
C641        C  0.70894440  0.44376566  0.54263477    -0.14820
C642        C  0.75097627  0.46036906  0.54769118    -0.14820
C643        C  0.77180495  0.49287078  0.57194050     0.07330
C644        C  0.75404197  0.51635110  0.58241711    -0.14820
H645        H  0.69724370  0.51513240  0.58953387     0.11320
H646        H  0.69147235  0.41371477  0.52991823     0.11320
H647        H  0.76484613  0.44271477  0.53833992     0.11320
H648        H  0.76980506  0.54204343  0.60053838     0.11320
C649        C  0.05167108  0.50985931  0.79871229    -0.14820
C650        C  0.05674828  0.54949048  0.80737976     0.07330
C651        C  0.02132917  0.55223592  0.81000957    -0.14820
C652        C  0.98280865  0.51581961  0.81110304    -0.14820
C653        C  0.97923488  0.47607269  0.81226861     0.07330
C654        C  0.01356102  0.47330490  0.80279231    -0.14820
H655        H  0.07841621  0.50662540  0.79479340     0.11320
H656        H  0.02347032  0.58171974  0.81578175     0.11320
H657        H  0.95633269  0.51922504  0.81620382     0.11320
H658        H  0.01213766  0.44369300  0.80225147     0.11320
C659        C  0.49830018  0.51208462  0.78174748    -0.14820
C660        C  0.46389140  0.48243984  0.80061116     0.07330
C661        C  0.46788387  0.45202295  0.81676832    -0.14820
C662        C  0.50702473  0.45789134  0.82226030    -0.14820
C663        C  0.54308215  0.49257698  0.80946619     0.07330
C664        C  0.53791266  0.51776481  0.78671445    -0.14820
H665        H  0.49608338  0.53570682  0.76839139     0.11320
H666        H  0.44248880  0.42883202  0.83149694     0.11320
H667        H  0.50902072  0.43819638  0.84087427     0.11320
H668        H  0.56447377  0.54470668  0.77644720     0.11320
C669        C  0.24549181  0.49956439  0.90981309    -0.14820
C670        C  0.28450521  0.52099773  0.92502462     0.07330
C671        C  0.29340886  0.55416659  0.94809761    -0.14820
C672        C  0.27088200  0.57426080  0.94612009    -0.14820
C673        C  0.23717197  0.55818682  0.92401276     0.07330
C674        C  0.22192271  0.51862652  0.90894242    -0.14820
H675        H  0.23719042  0.47314403  0.89278007     0.11320
H676        H  0.32269348  0.57008862  0.96136609     0.11320
H677        H  0.28254521  0.60445779  0.95839059     0.11320
H678        H  0.19537469  0.50561655  0.89215274     0.11320
C679        C  0.48793401  0.96553152  0.80004226    -0.14820
C680        C  0.52165963  0.95942513  0.80600880     0.07330
C681        C  0.56119560  0.99384086  0.80401224    -0.14820
C682        C  0.56637952  0.03363290  0.80259744    -0.14820
C683        C  0.53220863  0.03993063  0.80525528     0.07330
C684        C  0.49298645  0.00536242  0.80083702    -0.14820
H685        H  0.45674885  0.93948669  0.80002200     0.11320
H686        H  0.58786219  0.99066139  0.80778956     0.11320
H687        H  0.59750587  0.05967128  0.80433999     0.11320
H688        H  0.46605824  0.00865759  0.80191318     0.11320
C689        C  0.33515191  0.81025411  0.91808180    -0.14820
C690        C  0.35520087  0.79257810  0.93475890     0.07330
C691        C  0.33210239  0.75750443  0.95431388    -0.14820
C692        C  0.28924676  0.73651082  0.95221459    -0.14820
C693        C  0.27030128  0.74779564  0.92722330     0.07330
C694        C  0.29240509  0.78770723  0.91423054    -0.14820
H695        H  0.35265818  0.83768738  0.90305413     0.11320
H696        H  0.34697748  0.74358556  0.96754917     0.11320
H697        H  0.27226588  0.70630140  0.96353936     0.11320
H698        H  0.27843080  0.79768370  0.89557127     0.11320
C699        C  0.53953933  0.74000075  0.90441112    -0.14820
C700        C  0.52264046  0.75827150  0.92578466     0.07330
C701        C  0.49534039  0.73426356  0.95184495    -0.14820
C702        C  0.47498167  0.69111451  0.94883794    -0.14820
C703        C  0.48521802  0.67258675  0.92196558     0.07330
C704        C  0.52028761  0.69690065  0.90216199    -0.14820
H705        H  0.56149826  0.75778047  0.88474832     0.11320
H706        H  0.48303000  0.74802466  0.96957933     0.11320
H707        H  0.44825814  0.67272719  0.96457423     0.11320
H708        H  0.52884669  0.68280490  0.88151090     0.11320
C709        C  0.03942001  0.51557549  0.70439305    -0.14820
C710        C  0.04302525  0.48621755  0.68272947     0.07330
C711        C  0.01113758  0.46306660  0.65981600    -0.14820
C712        C  0.98399021  0.47646936  0.65181498    -0.14820
C713        C  0.98193007  0.50844690  0.67072262     0.07330
C714        C  0.00874510  0.52625818  0.69874819    -0.14820
H715        H  0.06388080  0.53451916  0.72234211     0.11320
H716        H  0.01279683  0.44086001  0.64241093     0.11320
H717        H  0.96556204  0.46244457  0.62904000     0.11320
H718        H  0.00903687  0.55116236  0.71373984     0.11320
C719        C  0.15806237  0.61204782  0.74094594    -0.14820
C720        C  0.15822579  0.58532386  0.71576691     0.07330
C721        C  0.15273731  0.54696335  0.72554751    -0.14820
C722        C  0.15965094  0.54084611  0.75926446    -0.14820
C723        C  0.16970927  0.57260171  0.78321132     0.07330
C724        C  0.16417670  0.60555193  0.77466515    -0.14820
H725        H  0.16049357  0.64108584  0.73431629     0.11320
H726        H  0.15036491  0.52507712  0.70630437     0.11320
H727        H  0.16217654  0.51431009  0.76547299     0.11320
H728        H  0.16946940  0.62845205  0.79366468     0.11320
C729        C  0.22533281  0.48906488  0.75033647    -0.14820
C730        C  0.24465809  0.50823188  0.71955380     0.07330
C731        C  0.28766757  0.52554023  0.71731328    -0.14820
C732        C  0.31082940  0.52581578  0.74517570    -0.14820
C733        C  0.29203572  0.50866141  0.77637564     0.07330
C734        C  0.24887624  0.48986174  0.77865151    -0.14820
H735        H  0.19237110  0.47488073  0.75297477     0.11320
H736        H  0.30389999  0.54028630  0.69411734     0.11320
H737        H  0.34388507  0.54129671  0.74273628     0.11320
H738        H  0.23352413  0.47673529  0.80254737     0.11320
C739        C  0.50518154  0.50342033  0.64333816    -0.14820
C740        C  0.53500131  0.54048511  0.66023976     0.07330
C741        C  0.55638125  0.53690107  0.68778615    -0.14820
C742        C  0.55083151  0.49765493  0.69548813    -0.14820
C743        C  0.52285040  0.46130935  0.67658086     0.07330
C744        C  0.49828333  0.46465860  0.65207414    -0.14820
H745        H  0.48783849  0.50425991  0.62181455     0.11320
H746        H  0.57940292  0.56434191  0.70142090     0.11320
H747        H  0.57075973  0.49616116  0.71437287     0.11320
H748        H  0.47724621  0.43795622  0.63650670     0.11320
C749        C  0.47632871  0.69038549  0.75428012    -0.14820
C750        C  0.50843531  0.70525885  0.73015061     0.07330
C751        C  0.54047190  0.74686222  0.73419334    -0.14820
C752        C  0.53961037  0.77281768  0.76104963    -0.14820
C753        C  0.50713775  0.75758263  0.78502954     0.07330
C754        C  0.47601332  0.71568824  0.78135250    -0.14820
H755        H  0.45061978  0.65903804  0.75180193     0.11320
H756        H  0.56524359  0.75986561  0.71572298     0.11320
H757        H  0.56423268  0.80476558  0.76296596     0.11320
H758        H  0.45035275  0.70249882  0.79898622     0.11320
C759        C  0.48449281  0.58895329  0.72547079    -0.14820
C760        C  0.44711124  0.55522938  0.71336826     0.07330
C761        C  0.41488258  0.53389687  0.73583785    -0.14820
C762        C  0.41813741  0.54949021  0.76887817    -0.14820
C763        C  0.45282777  0.58653811  0.77966424     0.07330
C764        C  0.48739522  0.60493583  0.75874685    -0.14820
H765        H  0.50958520  0.60596753  0.70823338     0.11320
H766        H  0.38598782  0.50775731  0.72703218     0.11320
H767        H  0.39263502  0.53452543  0.78544463     0.11320
H768        H  0.51475570  0.63332086  0.76680055     0.11320
C769        C  0.32289019  0.50034327  0.59343161    -0.14820
C770        C  0.35201227  0.53645271  0.57708187     0.07330
C771        C  0.33854602  0.55716750  0.55635627    -0.14820
C772        C  0.29737648  0.54645714  0.55703118    -0.14820
C773        C  0.26990868  0.51600154  0.57942426     0.07330
C774        C  0.28172617  0.49010204  0.59465240    -0.14820
H775        H  0.33272739  0.48378681  0.60942353     0.11320
H776        H  0.36053955  0.58470007  0.54309002     0.11320
H777        H  0.28865277  0.56621883  0.54433774     0.11320
H778        H  0.26106892  0.46618805  0.61181650     0.11320
C779        C  0.51999109  0.96434207  0.66354689    -0.14820
C780        C  0.48436497  0.96632888  0.67223691     0.07330
C781        C  0.48911825  0.00457506  0.68216236    -0.14820
C782        C  0.52848399  0.03997441  0.68313057    -0.14820
C783        C  0.56407150  0.03838522  0.67311989     0.07330
C784        C  0.55924713  0.99993522  0.66356113    -0.14820
H785        H  0.51733550  0.93514754  0.65556699     0.11320
H786        H  0.46257510  0.00710446  0.68919570     0.11320
H787        H  0.53072787  0.06912725  0.69054159     0.11320
H788        H  0.58549911  0.99750960  0.65529402     0.11320
C789        C  0.27054852  0.77590837  0.77389775    -0.14820
C790        C  0.24829139  0.73226574  0.77324270     0.07330
C791        C  0.24847405  0.71150616  0.74286402    -0.14820
C792        C  0.26904021  0.73325746  0.71360112    -0.14820
C793        C  0.29163379  0.77691454  0.71388530     0.07330
C794        C  0.29199394  0.79801607  0.74454841    -0.14820
H795        H  0.27234604  0.79284976  0.79736550     0.11320
H796        H  0.23413236  0.67821507  0.74211265     0.11320
H797        H  0.26834990  0.71552586  0.69097053     0.11320
H798        H  0.30954047  0.83150617  0.74610200     0.11320
C799        C  0.43656801  0.83599211  0.73715605    -0.14820
C800        C  0.41433604  0.79834966  0.71886562     0.07330
C801        C  0.38168906  0.76433935  0.73520225    -0.14820
C802        C  0.37292810  0.76743991  0.76953934    -0.14820
C803        C  0.39623794  0.80472681  0.78802498     0.07330
C804        C  0.42683785  0.83936118  0.77112117    -0.14820
H805        H  0.46106938  0.86309541  0.72514022     0.11320
H806        H  0.36298359  0.73523512  0.72144712     0.11320
H807        H  0.34997283  0.74000248  0.78234407     0.11320
H808        H  0.44590191  0.86809756  0.78497412     0.11320
C809        C  0.26959189  0.73435735  0.54829652    -0.14820
C810        C  0.26778496  0.75965365  0.57497296     0.07330
C811        C  0.23620111  0.74151091  0.59921342    -0.14820
C812        C  0.21442176  0.69858136  0.60200522    -0.14820
C813        C  0.22308856  0.67384209  0.57981608     0.07330
C814        C  0.24815665  0.69134674  0.55131157    -0.14820
H815        H  0.29312404  0.74776945  0.52877660     0.11320
H816        H  0.23355500  0.76010033  0.61974455     0.11320
H817        H  0.19455830  0.68519273  0.62393628     0.11320
H818        H  0.25469217  0.67250517  0.53373636     0.11320
C819        C  0.52255611  0.77551100  0.59132005    -0.14820
C820        C  0.49887409  0.73339788  0.58267323     0.07330
C821        C  0.46417766  0.71953939  0.56149239    -0.14820
C822        C  0.44811892  0.74516800  0.55581126    -0.14820
C823        C  0.46741773  0.78509910  0.57053773     0.07330
C824        C  0.50713917  0.80162784  0.58463431    -0.14820
H825        H  0.54944956  0.78682367  0.60748782     0.11320
H826        H  0.44589726  0.68707619  0.55404184     0.11320
H827        H  0.41786963  0.73192032  0.54439387     0.11320
H828        H  0.52297952  0.83261333  0.59589940     0.11320
C829        C  0.90957343  0.35683308  0.01295563    -0.14820
C830        C  0.93224145  0.39373175  0.03219652     0.07330
C831        C  0.95765867  0.43068759  0.01505998    -0.14820
C832        C  0.95599384  0.43195310  0.97951633    -0.14820
C833        C  0.92947853  0.39608938  0.96047678     0.07330
C834        C  0.90837756  0.35798437  0.97714209    -0.14820
H835        H  0.88920453  0.32815344  0.02561179     0.11320
H836        H  0.97535409  0.45953520  0.02944546     0.11320
H837        H  0.97259681  0.46158148  0.96724756     0.11320
H838        H  0.88733330  0.32994343  0.96296580     0.11320
C839        C  0.51219704  0.06581247  0.00731057    -0.14820
C840        C  0.49864603  0.08980447  0.02528827     0.07330
C841        C  0.48076740  0.10830965  0.00688074    -0.14820
C842        C  0.48105520  0.10689460  0.97089109    -0.14820
C843        C  0.49959016  0.08729386  0.95293294     0.07330
C844        C  0.51278977  0.06464847  0.97153483    -0.14820
H845        H  0.52615361  0.05125438  0.02097703     0.11320
H846        H  0.47074893  0.12751407  0.02007776     0.11320
H847        H  0.47092028  0.12497845  0.95733411     0.11320
H848        H  0.52701212  0.04912717  0.95857028     0.11320
C849        C  0.70434188  0.25514349  0.04914199    -0.14820
C850        C  0.68923514  0.21733375  0.06535245     0.07330
C851        C  0.71692466  0.20459015  0.07502022    -0.14820
C852        C  0.75871649  0.23369594  0.07747308    -0.14820
C853        C  0.77203915  0.27476598  0.06973352     0.07330
C854        C  0.74627389  0.28370898  0.05059096    -0.14820
H855        H  0.68360687  0.26494303  0.04017010     0.11320
H856        H  0.70600159  0.17476412  0.08638890     0.11320
H857        H  0.77850048  0.22592606  0.09133739     0.11320
H858        H  0.75678926  0.31516229  0.04312351     0.11320
C859        C  0.59121037  0.51784644  0.97941038    -0.14820
C860        C  0.62460043  0.52592067  0.95827689     0.07330
C861        C  0.66355965  0.54040676  0.97293129    -0.14820
C862        C  0.66770932  0.54137312  0.00858454    -0.14820
C863        C  0.63295464  0.52822955  0.02946085     0.07330
C864        C  0.59544942  0.51927090  0.01481703    -0.14820
H865        H  0.56097224  0.50658801  0.96853143     0.11320
H866        H  0.68954571  0.54620275  0.95691924     0.11320
H867        H  0.69666851  0.54763113  0.01943580     0.11320
H868        H  0.56828284  0.50885370  0.03061137     0.11320
C869        C  0.83087072  0.51340970  0.08953814    -0.14820
C870        C  0.82152976  0.47505589  0.07449988     0.07330
C871        C  0.78903865  0.45559540  0.05101900    -0.14820
C872        C  0.76144336  0.46979425  0.04824316    -0.14820
C873        C  0.76481096  0.50124003  0.07095702     0.07330
C874        C  0.80238740  0.52668381  0.08763662    -0.14820
H875        H  0.85645807  0.52954228  0.10716214     0.11320
H876        H  0.78203355  0.42666050  0.03830151     0.11320
H877        H  0.73317500  0.45069177  0.03408733     0.11320
H878        H  0.80620045  0.55177390  0.10462283     0.11320
C879        C  0.51740359  0.30503882  0.08241502    -0.14820
C880        C  0.55659096  0.33045678  0.06801486     0.07330
C881        C  0.57402029  0.31224955  0.04735465    -0.14820
C882        C  0.55663917  0.26935903  0.04709576    -0.14820
C883        C  0.52436689  0.24567748  0.06991402     0.07330
C884        C  0.50124742  0.26238069  0.08342769    -0.14820
H885        H  0.50246637  0.31831165  0.09760889     0.11320
H886        H  0.60341109  0.33111282  0.03499646     0.11320
H887        H  0.57396620  0.25635956  0.03536125     0.11320
H888        H  0.47560903  0.24445080  0.10035266     0.11320
C889        C  0.57910652  0.07920487  0.48653487    -0.14820
C890        C  0.61472366  0.09213748  0.46631873     0.07330
C891        C  0.64982397  0.09583243  0.48164852    -0.14820
C892        C  0.65072205  0.09143084  0.51709740    -0.14820
C893        C  0.61665337  0.08361003  0.53796228     0.07330
C894        C  0.58006760  0.07508120  0.52192928    -0.14820
H895        H  0.55111431  0.07514835  0.47537427     0.11320
H896        H  0.67757092  0.10541906  0.46685214     0.11320
H897        H  0.67946521  0.09783957  0.52847191     0.11320
H898        H  0.55327319  0.06884515  0.53695722     0.11320
C899        C  0.62197946  0.16283620  0.27105329    -0.14820
C900        C  0.58592822  0.16334538  0.27935856     0.07330
C901        C  0.55855878  0.15841015  0.25387177    -0.14820
C902        C  0.56950765  0.15667371  0.22016376    -0.14820
C903        C  0.60866633  0.16363338  0.21176423     0.07330
C904        C  0.63472869  0.16522310  0.23723423    -0.14820
H905        H  0.63951039  0.15969748  0.29083105     0.11320
H906        H  0.52893144  0.15508860  0.25996933     0.11320
H907        H  0.54767642  0.15011292  0.20033488     0.11320
H908        H  0.66366091  0.16699022  0.23104147     0.11320
C909        C  0.73086030  0.27818208  0.26653009    -0.14820
C910        C  0.73347484  0.24486025  0.27977557     0.07330
C911        C  0.76283691  0.23662817  0.26403248    -0.14820
C912        C  0.78803542  0.26069963  0.23623632    -0.14820
C913        C  0.78478328  0.29387213  0.22310143     0.07330
C914        C  0.75562919  0.30183962  0.23922764    -0.14820
H915        H  0.70925968  0.28638473  0.27733393     0.11320
H916        H  0.76635924  0.21157431  0.27312657     0.11320
H917        H  0.80974266  0.25302446  0.22483906     0.11320
H918        H  0.75156914  0.32677026  0.23064386     0.11320
C919        C  0.89980505  0.54694428  0.47746986    -0.14820
C920        C  0.93021857  0.54206121  0.46054566     0.07330
C921        C  0.96096634  0.54111330  0.47948669    -0.14820
C922        C  0.95805752  0.53911693  0.51497215    -0.14820
C923        C  0.92458416  0.53840029  0.53159459     0.07330
C924        C  0.89696337  0.54509887  0.51312799    -0.14820
H925        H  0.87523957  0.54658628  0.46307168     0.11320
H926        H  0.98408218  0.53652555  0.46668308     0.11320
H927        H  0.97937278  0.53368134  0.52905709     0.11320
H928        H  0.87060870  0.54392744  0.52572567     0.11320
C929        C  0.87187855  0.46484696  0.24585340    -0.14820
C930        C  0.87112011  0.43961755  0.21908514     0.07330
C931        C  0.87215885  0.40355452  0.22556324    -0.14820
C932        C  0.86736896  0.38891664  0.25858307    -0.14820
C933        C  0.86459964  0.41269746  0.28512122     0.07330
C934        C  0.87029513  0.45163836  0.27879034    -0.14820
H935        H  0.87394926  0.49425259  0.24138372     0.11320
H936        H  0.87583636  0.38660188  0.20483233     0.11320
H937        H  0.86615417  0.35996991  0.26328796     0.11320
H938        H  0.87306812  0.47121437  0.29998125     0.11320
C939        C  0.79630979  0.52387996  0.25724549    -0.14820
C940        C  0.79008281  0.48650024  0.27093044     0.07330
C941        C  0.75758056  0.44944259  0.25661714    -0.14820
C942        C  0.73258948  0.44937858  0.23013139    -0.14820
C943        C  0.73834221  0.48636357  0.21631532     0.07330
C944        C  0.77076266  0.52381863  0.23050382    -0.14820
H945        H  0.82055723  0.55321435  0.26750228     0.11320
H946        H  0.75112171  0.41981928  0.26598626     0.11320
H947        H  0.70831197  0.41970642  0.22042283     0.11320
H948        H  0.77676538  0.55307523  0.22065655     0.11320
C949        C  0.76829730  0.32953219  0.44940520    -0.14820
C950        C  0.80541486  0.34239829  0.43210728     0.07330
C951        C  0.81656562  0.31281519  0.42259743    -0.14820
C952        C  0.78680051  0.27084013  0.42212968    -0.14820
C953        C  0.74645331  0.25908722  0.43140286     0.07330
C954        C  0.73914509  0.28747636  0.45001585    -0.14820
H955        H  0.75961995  0.35180376  0.45803956     0.11320
H956        H  0.84567663  0.32202997  0.41010168     0.11320
H957        H  0.79339283  0.24923509  0.40852153     0.11320
H958        H  0.70831644  0.27845013  0.45854619     0.11320
C959        C  0.53091555  0.44339370  0.49203538    -0.14820
C960        C  0.51061345  0.40737770  0.47102064     0.07330
C961        C  0.48533171  0.36935739  0.48651356    -0.14820
C962        C  0.48425914  0.36683801  0.52231813    -0.14820
C963        C  0.50850355  0.40230333  0.54327171     0.07330
C964        C  0.52986248  0.44091881  0.52773216    -0.14820
H965        H  0.55039184  0.47327613  0.48078636     0.11320
H966        H  0.46957767  0.34110846  0.47106466     0.11320
H967        H  0.46719350  0.33649839  0.53335309     0.11320
H968        H  0.54861435  0.46885313  0.54290113     0.11320
C969        C  0.50090051  0.25902189  0.26316486    -0.14820
C970        C  0.53780798  0.28577188  0.28129853     0.07330
C971        C  0.57337287  0.28556866  0.26959826    -0.14820
C972        C  0.57265580  0.26096020  0.24130465    -0.14820
C973        C  0.53628873  0.23452262  0.22276718     0.07330
C974        C  0.50010885  0.23368866  0.23456431    -0.14820
H975        H  0.47262527  0.25773523  0.27095547     0.11320
H976        H  0.60264225  0.30511753  0.28219473     0.11320
H977        H  0.60135522  0.26296328  0.23377776     0.11320
H978        H  0.47137682  0.21429805  0.22118366     0.11320
C979        C  0.57685911  0.39784386  0.26998816    -0.14820
C980        C  0.61362303  0.43307207  0.28043114     0.07330
C981        C  0.63812154  0.46230974  0.25678963    -0.14820
C982        C  0.62688834  0.45396763  0.22257668    -0.14820
C983        C  0.59404367  0.41541450  0.21182482     0.07330
C984        C  0.56796702  0.38748877  0.23560204    -0.14820
H985        H  0.55432627  0.37979405  0.28857025     0.11320
H986        H  0.66447978  0.49159523  0.26477442     0.11320
H987        H  0.64328500  0.47759405  0.20437497     0.11320
H988        H  0.54035360  0.35921666  0.22775006     0.11320
C989        C  0.55772314  0.27711998  0.45309202    -0.14820
C990        C  0.52628558  0.27292596  0.43144361     0.07330
C991        C  0.49866663  0.23371475  0.41742148    -0.14820
C992        C  0.51014081  0.20365850  0.41577287    -0.14820
C993        C  0.54872679  0.21327432  0.42861584     0.07330
C994        C  0.56985668  0.24766638  0.45082894    -0.14820
H995        H  0.57837503  0.30675741  0.46539766     0.11320
H996        H  0.47326887  0.22924771  0.40161270     0.11320
H997        H  0.49252256  0.17648431  0.39944802     0.11320
H998        H  0.59890263  0.25485030  0.46212167     0.11320
C999        C  0.71800614  0.46352106  0.44375183    -0.14820
C1000       C  0.70032306  0.47940491  0.42216223     0.07330
C1001       C  0.72588214  0.51762098  0.40651123    -0.14820
C1002       C  0.76828070  0.53378783  0.40543639    -0.14820
C1003       C  0.78453958  0.51151740  0.41996555     0.07330
C1004       C  0.76065828  0.48118577  0.44401651    -0.14820
H1005       H  0.69901872  0.43503246  0.45711841     0.11320
H1006       H  0.71300629  0.53149331  0.39061547     0.11320
H1007       H  0.78640031  0.55815094  0.38767814     0.11320
H1008       H  0.77337048  0.46476968  0.45668633     0.11320
C1009       C  0.12718582  0.46091788  0.48080827    -0.14820
C1010       C  0.10798744  0.47829506  0.46266192     0.07330
C1011       C  0.08236637  0.48963980  0.48042758    -0.14820
C1012       C  0.08009486  0.48865826  0.51609688    -0.14820
C1013       C  0.10346902  0.47632191  0.53474195     0.07330
C1014       C  0.12484496  0.45982269  0.51670366    -0.14820
H1015       H  0.14750043  0.45246319  0.46771449     0.11320
H1016       H  0.06717218  0.50305078  0.46691042     0.11320
H1017       H  0.06310506  0.50120240  0.52915988     0.11320
H1018       H  0.14339444  0.45030627  0.53034386     0.11320
C1019       C  0.05672943  0.52174022  0.29866117    -0.14820
C1020       C  0.05501735  0.48602410  0.31197753     0.07330
C1021       C  0.01675010  0.45430194  0.32232848    -0.14820
C1022       C  0.98410704  0.46144294  0.32678207    -0.14820
C1023       C  0.98622092  0.49872923  0.31733846     0.07330
C1024       C  0.02255682  0.52797056  0.30108746    -0.14820
H1025       H  0.08584146  0.54708879  0.29026144     0.11320
H1026       H  0.01438584  0.42721481  0.33392630     0.11320
H1027       H  0.96007060  0.43978136  0.34288133     0.11320
H1028       H  0.02646464  0.55756427  0.29430262     0.11320
C1029       C  0.53903624  0.65910045  0.47082366    -0.14820
C1030       C  0.54905880  0.63225766  0.45315928     0.07330
C1031       C  0.56122346  0.60856186  0.47133084    -0.14820
C1032       C  0.55964396  0.60883753  0.50703177    -0.14820
C1033       C  0.54567389  0.63261005  0.52443156     0.07330
C1034       C  0.53718468  0.65916992  0.50643505    -0.14820
H1035       H  0.52827136  0.67651028  0.45706018     0.11320
H1036       H  0.56781323  0.58685113  0.45794271     0.11320
H1037       H  0.56552308  0.58767487  0.52081430     0.11320
H1038       H  0.52549987  0.67695551  0.51967179     0.11320
C1039       C  0.57241227  0.54693023  0.31431800    -0.14820
C1040       C  0.53979659  0.55109963  0.30315812     0.07330
C1041       C  0.50367881  0.51450917  0.29210630    -0.14820
C1042       C  0.49750555  0.47479628  0.29902814    -0.14820
C1043       C  0.52748284  0.47130264  0.31716323     0.07330
C1044       C  0.56540396  0.50823865  0.32354545    -0.14820
H1045       H  0.60019864  0.57405526  0.32373319     0.11320
H1046       H  0.47790291  0.51651628  0.28271686     0.11320
H1047       H  0.46765013  0.44767539  0.29421713     0.11320
H1048       H  0.58814434  0.50895147  0.34033837     0.11320
C1049       C  0.34052515  0.56086096  0.44170173    -0.14820
C1050       C  0.35437192  0.53934728  0.42085316     0.07330
C1051       C  0.32556016  0.50014919  0.40708931    -0.14820
C1052       C  0.28387094  0.48784432  0.40693921    -0.14820
C1053       C  0.27155680  0.51480293  0.42069125     0.07330
C1054       C  0.29877592  0.54791279  0.44229358    -0.14820
H1055       H  0.36217420  0.59053903  0.45341416     0.11320
H1056       H  0.33553367  0.48244379  0.39152327     0.11320
H1057       H  0.26318152  0.46168996  0.39071283     0.11320
H1058       H  0.28937577  0.56840908  0.45399851     0.11320
C1059       C  0.39322108  0.91426806  0.48695326    -0.14820
C1060       C  0.42830609  0.91875361  0.47038959     0.07330
C1061       C  0.46401056  0.93076732  0.48996386    -0.14820
C1062       C  0.46297932  0.93265416  0.52567969    -0.14820
C1063       C  0.42628852  0.92293900  0.54253818     0.07330
C1064       C  0.39229303  0.91659113  0.52275247    -0.14820
H1065       H  0.36544704  0.90531266  0.47258785     0.11320
H1066       H  0.49197636  0.93544532  0.47776807     0.11320
H1067       H  0.48977263  0.93809491  0.53994963     0.11320
H1068       H  0.36352458  0.90949461  0.53486642     0.11320
C1069       C  0.49324114  0.00293544  0.30404427    -0.14820
C1070       C  0.49015951  0.96827356  0.31971234     0.07330
C1071       C  0.52733494  0.96849893  0.32560902    -0.14820
C1072       C  0.56577901  0.00307438  0.31971259    -0.14820
C1073       C  0.56864764  0.04027430  0.31135022     0.07330
C1074       C  0.53236948  0.03863630  0.29966151    -0.14820
H1075       H  0.46584903  0.00458386  0.29948137     0.11320
H1076       H  0.52788412  0.94486356  0.34017619     0.11320
H1077       H  0.59266936  0.00313299  0.32931811     0.11320
H1078       H  0.53355875  0.06667097  0.29192087     0.11320
C1079       C  0.46502553  0.75807077  0.44231992    -0.14820
C1080       C  0.48701873  0.79459023  0.42410046     0.07330
C1081       C  0.52718292  0.80687671  0.41291677    -0.14820
C1082       C  0.53957544  0.77763917  0.41060960    -0.14820
C1083       C  0.51162969  0.73706385  0.41979942     0.07330
C1084       C  0.47822395  0.72947830  0.44101269    -0.14820
H1085       H  0.43485308  0.74885444  0.45264208     0.11320
H1086       H  0.54572107  0.83594856  0.40019642     0.11320
H1087       H  0.56645628  0.78448335  0.39543210     0.11320
H1088       H  0.45743713  0.69851111  0.44984825     0.11320
C1089       C  0.29473293  0.73354908  0.44779582    -0.14820
C1090       C  0.28879109  0.75981338  0.42658621     0.07330
C1091       C  0.24947820  0.74605331  0.41342028    -0.14820
C1092       C  0.22023356  0.70386433  0.41371054    -0.14820
C1093       C  0.23068850  0.67588918  0.42709513     0.07330
C1094       C  0.26612441  0.69126089  0.44727570    -0.14820
H1095       H  0.32468933  0.74401910  0.45896368     0.11320
H1096       H  0.24397154  0.76592084  0.39743266     0.11320
H1097       H  0.19252120  0.69277500  0.39864799     0.11320
H1098       H  0.27426179  0.67034958  0.45869334     0.11320
C1099       C  0.12553331  0.65327343  0.97887645    -0.14820
C1100       C  0.10593324  0.61628336  0.95900835     0.07330
C1101       C  0.08302693  0.57853206  0.97566377    -0.14820
C1102       C  0.08473419  0.57720897  0.01117399    -0.14820
C1103       C  0.10891675  0.61360942  0.03063482     0.07330
C1104       C  0.12705421  0.65191855  0.01461758    -0.14820
H1105       H  0.14364824  0.68283004  0.96674956     0.11320
H1106       H  0.06732844  0.54959557  0.96108627     0.11320
H1107       H  0.07026619  0.54733858  0.02314320     0.11320
H1108       H  0.14612396  0.68030937  0.02918117     0.11320
C1109       C  0.06139755  0.49945467  0.16632510    -0.14820
C1110       C  0.06064865  0.53565982  0.17676136     0.07330
C1111       C  0.02611476  0.52991733  0.19545086    -0.14820
C1112       C  0.99178488  0.48944391  0.19915820    -0.14820
C1113       C  0.99153504  0.45422356  0.18440990     0.07330
C1114       C  0.02877138  0.45973571  0.17217637    -0.14820
H1115       H  0.08410791  0.50071438  0.14867190     0.11320
H1116       H  0.02341335  0.55640475  0.20326786     0.11320
H1117       H  0.96367440  0.48637180  0.20951690     0.11320
H1118       H  0.02964507  0.43388708  0.15980638     0.11320
C1119       C  0.17820554  0.61763153  0.25672048    -0.14820
C1120       C  0.17943949  0.59216171  0.28105986     0.07330
C1121       C  0.17721499  0.55484731  0.27103245    -0.14820
C1122       C  0.18044859  0.54581703  0.23679476    -0.14820
C1123       C  0.18217525  0.57292265  0.21253530     0.07330
C1124       C  0.17762187  0.60657840  0.22249627    -0.14820
H1125       H  0.17662163  0.64490300  0.26405907     0.11320
H1126       H  0.17269876  0.53282466  0.28988596     0.11320
H1127       H  0.18052173  0.51777208  0.22935534     0.11320
H1128       H  0.17287263  0.62361456  0.20350799     0.11320
C1129       C  0.24678132  0.74655661  0.24012682    -0.14820
C1130       C  0.25797582  0.72175797  0.21984190     0.07330
C1131       C  0.29558289  0.72442410  0.22829874    -0.14820
C1132       C  0.32029393  0.74948472  0.25567515    -0.14820
C1133       C  0.30924762  0.77374719  0.27648329     0.07330
C1134       C  0.27206121  0.77222096  0.26794124    -0.14820
H1135       H  0.21840207  0.74595159  0.23469411     0.11320
H1136       H  0.30630829  0.70670781  0.21370918     0.11320
H1137       H  0.34850729  0.74953180  0.26071310     0.11320
H1138       H  0.26192508  0.78991923  0.28327160     0.11320
C1139       C  0.45132734  0.49297975  0.00619416    -0.14820
C1140       C  0.41495552  0.47869719  0.02532969     0.07330
C1141       C  0.37706444  0.45862676  0.00820820    -0.14820
C1142       C  0.37595823  0.45798369  0.97233848    -0.14820
C1143       C  0.41277094  0.47761760  0.95326946     0.07330
C1144       C  0.45028182  0.49248689  0.97048533    -0.14820
H1145       H  0.48095962  0.50839498  0.01892564     0.11320
H1146       H  0.34867818  0.44776257  0.02238369     0.11320
H1147       H  0.34646469  0.44611667  0.95986942     0.11320
H1148       H  0.47910000  0.50730891  0.95662494     0.11320
C1149       C  0.48206530  0.45791983  0.16891702    -0.14820
C1150       C  0.47600308  0.49040604  0.17865375     0.07330
C1151       C  0.51026326  0.52686755  0.19244953    -0.14820
C1152       C  0.55061792  0.53300284  0.19067375    -0.14820
C1153       C  0.55735026  0.50285714  0.17466664     0.07330
C1154       C  0.52181244  0.46489425  0.16488577    -0.14820
H1155       H  0.45704276  0.43017550  0.15704618     0.11320
H1156       H  0.50675120  0.55276061  0.20046439     0.11320
H1157       H  0.57652550  0.56310267  0.19751751     0.11320
H1158       H  0.52373718  0.44244779  0.14847401     0.11320
C1159       C  0.27650345  0.48846829  0.22800513    -0.14820
C1160       C  0.31053503  0.52575512  0.21641332     0.07330
C1161       C  0.31850020  0.56249764  0.23407422    -0.14820
C1162       C  0.29390806  0.56242311  0.26152814    -0.14820
C1163       C  0.25969863  0.52559023  0.27321879     0.07330
C1164       C  0.25148938  0.48839085  0.25589785    -0.14820
H1165       H  0.26885097  0.45939377  0.21526654     0.11320
H1166       H  0.34413617  0.59203663  0.22661263     0.11320
H1167       H  0.30208859  0.59192777  0.27371971     0.11320
H1168       H  0.22578885  0.45920270  0.26388995     0.11320
C1169       C  0.48220143  0.61733412  0.23561771    -0.14820
C1170       C  0.45694528  0.59381907  0.20873233     0.07330
C1171       C  0.42243879  0.55505646  0.21470153    -0.14820
C1172       C  0.40927914  0.54183102  0.24768151    -0.14820
C1173       C  0.43315693  0.56678269  0.27466280     0.07330
C1174       C  0.47052268  0.60272872  0.26842478    -0.14820
H1175       H  0.51061025  0.64606823  0.23129372     0.11320
H1176       H  0.40598581  0.53537203  0.19350183     0.11320
H1177       H  0.38143670  0.51257676  0.25199775     0.11320
H1178       H  0.48998113  0.61954741  0.28943413     0.11320
C1179       C  0.26895449  0.56244290  0.04661525    -0.14820
C1180       C  0.23291214  0.54168696  0.06594592     0.07330
C1181       C  0.22078233  0.50201874  0.07797987    -0.14820
C1182       C  0.24903307  0.48838846  0.07822928    -0.14820
C1183       C  0.28892055  0.51449606  0.06630857     0.07330
C1184       C  0.29651852  0.54799685  0.04591012    -0.14820
H1185       H  0.27828014  0.59236561  0.03608244     0.11320
H1186       H  0.19243308  0.48472084  0.09217148     0.11320
H1187       H  0.24226101  0.46192347  0.09342093     0.11320
H1188       H  0.32696502  0.56780519  0.03556001     0.11320
C1189       C  0.53291645  0.94566983  0.01212418    -0.14820
C1190       C  0.54575757  0.92187450  0.02962008     0.07330
C1191       C  0.56585144  0.90449506  0.01134779    -0.14820
C1192       C  0.56760987  0.90588264  0.97550284    -0.14820
C1193       C  0.54897402  0.92438008  0.95768474     0.07330
C1194       C  0.53450310  0.94693358  0.97645254    -0.14820
H1195       H  0.51770669  0.95975192  0.02580438     0.11320
H1196       H  0.57577735  0.88582515  0.02426133     0.11320
H1197       H  0.57894548  0.88811807  0.96178202     0.11320
H1198       H  0.52037558  0.96182119  0.96354009     0.11320
C1199       C  0.50187691  0.97285730  0.19525478    -0.14820
C1200       C  0.53755071  0.97364624  0.18205456     0.07330
C1201       C  0.56927528  0.01144724  0.17085415    -0.14820
C1202       C  0.56137339  0.04294268  0.16363703    -0.14820
C1203       C  0.52400183  0.04123314  0.17271748     0.07330
C1204       C  0.49520498  0.00653001  0.19084399    -0.14820
H1205       H  0.47675059  0.94425268  0.20472239     0.11320
H1206       H  0.59655519  0.01309069  0.15968823     0.11320
H1207       H  0.58268072  0.06536350  0.14610162     0.11320
H1208       H  0.46567759  0.00303203  0.19757166     0.11320
C1209       C  0.45898815  0.71139407  0.25523708    -0.14820
C1210       C  0.49586309  0.71557136  0.26788948     0.07330
C1211       C  0.53282512  0.74623891  0.25276880    -0.14820
C1212       C  0.53259496  0.77141458  0.22611869    -0.14820
C1213       C  0.49538292  0.76675599  0.21351132     0.07330
C1214       C  0.45875691  0.73618704  0.22887642    -0.14820
H1215       H  0.42968422  0.68865905  0.26580087     0.11320
H1216       H  0.56201459  0.75095495  0.26162002     0.11320
H1217       H  0.56157527  0.79424320  0.21516236     0.11320
H1218       H  0.42928005  0.73114480  0.22046574     0.11320
C1219       C  0.46746759  0.85000007  0.21882481    -0.14820
C1220       C  0.43080192  0.84907723  0.21149559     0.07330
C1221       C  0.40702157  0.85138384  0.23782209    -0.14820
C1222       C  0.41901669  0.85138998  0.27123628    -0.14820
C1223       C  0.45161893  0.84480425  0.27823029     0.07330
C1224       C  0.47717574  0.84581554  0.25201241    -0.14820
H1225       H  0.48844687  0.85426734  0.19860217     0.11320
H1226       H  0.38045565  0.85430416  0.23265034     0.11320
H1227       H  0.40358158  0.85733850  0.29178783     0.11320
H1228       H  0.50479777  0.84480120  0.25723116     0.11320
C1229       C  0.33136004  0.76417037  0.04658336    -0.14820
C1230       C  0.34766133  0.79981705  0.06765882     0.07330
C1231       C  0.32073066  0.81099420  0.08344049    -0.14820
C1232       C  0.27878318  0.78195842  0.08521674    -0.14820
C1233       C  0.26430410  0.74226741  0.07098724     0.07330
C1234       C  0.28922336  0.73599841  0.04726457    -0.14820
H1235       H  0.35145597  0.75546062  0.03345117     0.11320
H1236       H  0.33256404  0.83896053  0.09921940     0.11320
H1237       H  0.25989495  0.78783648  0.10298475     0.11320
H1238       H  0.27805965  0.70580777  0.03508843     0.11320
C1239       C  0.47283642  0.72740075  0.04448885    -0.14820
C1240       C  0.50618752  0.75575947  0.06495856     0.07330
C1241       C  0.53448873  0.74483190  0.07610170    -0.14820
C1242       C  0.52353197  0.70322076  0.07491582    -0.14820
C1243       C  0.48435480  0.67319526  0.06274351     0.07330
C1244       C  0.46138094  0.68576715  0.04394270    -0.14820
H1245       H  0.45132249  0.73576782  0.03470519     0.11320
H1246       H  0.56089025  0.76648351  0.09134178     0.11320
H1247       H  0.54237857  0.69424893  0.08877970     0.11320
H1248       H  0.43169049  0.66315714  0.03336353     0.11320
loop_ 
_geom_bond_atom_site_label_1 
_geom_bond_atom_site_label_2 
_geom_bond_distance 
_geom_bond_site_symmetry_2 
_ccdc_geom_bond_type 
Fe1          O17   2.027       .  S
Fe1           O7   2.015       .  S
Fe1          O14   2.042       .  S
Fe1           O6   2.017       .  S
Fe1          O12   1.968       .  S
Fe2           O5   2.093       .  S
Fe2           O9   2.085       .  S
Fe2          O13   2.072       .  S
Fe2          O18   2.037       .  S
Fe2          O12   1.916       .  S
Fe3          O21   2.158       .  S
Fe3           O8   2.078       .  S
Fe3          O15   2.145       .  S
Fe3           O4   2.149       .  S
Fe3          O12   1.943       .  S
O4           C11   1.294       .  A
O5           C19   1.277       .  A
O6           C11   1.276       .  A
O7           C10   1.249       .  A
O8           C20   1.276       .  A
O9           C22   1.278       .  A
C10          O15   1.274       .  A
C10        C1200   1.482       .  S
C11        C1190   1.475       .  S
O13          C16   1.263       .  A
O14          C16   1.255       .  A
C16        C1230   1.469       .  S
O17          C22   1.269       .  A
O18          C20   1.273       .  A
C19          O21   1.288       .  A
C19        C1213   1.531       .  S
C20        C1240   1.463       .  S
C22        C1220   1.439       .  S
Fe23         O39   2.024       .  S
Fe23         O29   2.023       .  S
Fe23         O36   2.046       .  S
Fe23         O28   2.013       .  S
Fe23         O34   1.976       .  S
Fe24         O27   2.087       .  S
Fe24         O31   2.082       .  S
Fe24         O35   2.064       .  S
Fe24         O40   2.029       .  S
Fe24         O34   1.918       .  S
Fe25         O43   2.167       .  S
Fe25         O30   2.082       .  S
Fe25         O37   2.141       .  S
Fe25         O26   2.144       .  S
Fe25         O34   1.948       .  S
O26          C33   1.292       .  A
O27          C41   1.277       .  A
O28          C33   1.273       .  A
O29          C32   1.254       .  A
O30          C42   1.275       .  A
O31          C44   1.277       .  A
C32          O37   1.276       .  A
C32        C1150   1.484       .  S
C33        C1140   1.474       .  S
O35          C38   1.262       .  A
O36          C38   1.257       .  A
C38        C1243   1.467       .  S
O39          C44   1.267       .  A
O40          C42   1.270       .  A
C41          O43   1.289       .  A
C41        C1160   1.531       .  S
C42        C1183   1.461       .  S
C44        C1170   1.437       .  S
Fe45         O61   2.041       .  S
Fe45         O51   2.017       .  S
Fe45         O58   2.031       .  S
Fe45         O50   2.019       .  S
Fe45         O56   1.954       .  S
Fe46         O49   2.085       .  S
Fe46         O53   2.080       .  S
Fe46         O57   2.076       .  S
Fe46         O62   2.025       .  S
Fe46         O56   1.914       .  S
Fe47         O65   2.162       .  S
Fe47         O52   2.098       .  S
Fe47         O59   2.193       .  S
Fe47         O48   2.151       .  S
Fe47         O56   1.943       .  S
O48          C55   1.296       .  A
O49          C63   1.275       .  A
O50          C55   1.280       .  A
O51          C54   1.238       .  A
O52          C64   1.281       .  A
O53          C66   1.278       .  A
C54          O59   1.279       .  A
C54        C1110   1.507       .  S
C55        C1103   1.470       .  S
O57          C60   1.263       .  A
O58          C60   1.253       .  A
C60        C1180   1.469       .  S
O61          C66   1.268       .  A
O62          C64   1.272       .  A
C63          O65   1.288       .  A
C63        C1130   1.534       .  S
C64        C1233   1.465       .  S
C66        C1123   1.440       .  S
Fe67         O83   2.027       .  S
Fe67         O73   2.013       .  S
Fe67         O80   2.024       .  S
Fe67         O72   2.000       .  S
Fe67         O78   1.955       .  S
Fe68         O71   2.077       .  S
Fe68         O75   2.083       .  S
Fe68         O79   2.073       .  S
Fe68         O84   2.029       .  S
Fe68         O78   1.908       .  S
Fe69         O87   2.174       .  S
Fe69         O74   2.093       .  S
Fe69         O81   2.182       .  S
Fe69         O70   2.175       .  S
Fe69         O78   1.934       .  S
O70          C77   1.303       .  A
O71          C85   1.274       .  A
O72          C77   1.275       .  A
O73          C76   1.238       .  A
O74          C86   1.279       .  A
O75          C88   1.278       .  A
C76          O81   1.276       .  A
C76        C1070   1.500       .  S
C77        C1060   1.480       .  S
O79          C82   1.263       .  A
O80          C82   1.253       .  A
C82        C1080   1.464       .  S
O83          C88   1.265       .  A
O84          C86   1.271       .  A
C85          O87   1.292       .  A
C85        C1133   1.530       .  S
C86        C1090   1.464       .  S
C88        C1223   1.439       .  S
Fe89        O105   2.031       .  S
Fe89         O95   2.021       .  S
Fe89        O102   2.046       .  S
Fe89         O94   2.021       .  S
Fe89        O100   1.967       .  S
Fe90         O93   2.097       .  S
Fe90         O97   2.090       .  S
Fe90        O101   2.069       .  S
Fe90        O106   2.032       .  S
Fe90        O100   1.912       .  S
Fe91        O109   2.157       .  S
Fe91         O96   2.068       .  S
Fe91        O103   2.141       .  S
Fe91         O92   2.116       .  S
Fe91        O100   1.950       .  S
O92          C99   1.286       .  A
O93         C107   1.279       .  A
O94          C99   1.275       .  A
O95          C98   1.253       .  A
O96         C108   1.272       .  A
O97         C110   1.280       .  A
C98         O103   1.276       .  A
C98        C1040   1.480       .  S
C99        C1030   1.453       .  S
O101        C104   1.261       .  A
O102        C104   1.255       .  A
C104       C1050   1.468       .  S
O105        C110   1.272       .  A
O106        C108   1.272       .  A
C107        O109   1.288       .  A
C107       C1210   1.531       .  S
C108       C1083   1.458       .  S
C110       C1173   1.437       .  S
Fe111       O127   2.024       .  S
Fe111       O117   2.021       .  S
Fe111       O124   2.048       .  S
Fe111       O116   2.017       .  S
Fe111       O122   1.968       .  S
Fe112       O115   2.086       .  S
Fe112       O119   2.082       .  S
Fe112       O123   2.069       .  S
Fe112       O128   2.034       .  S
Fe112       O122   1.914       .  S
Fe113       O131   2.160       .  S
Fe113       O118   2.085       .  S
Fe113       O125   2.149       .  S
Fe113       O114   2.153       .  S
Fe113       O122   1.941       .  S
O114        C121   1.295       .  A
O115        C129   1.275       .  A
O116        C121   1.276       .  A
O117        C120   1.250       .  A
O118        C130   1.276       .  A
O119        C132   1.278       .  A
C120        O125   1.275       .  A
C120       C1020   1.487       .  S
C121       C1010   1.476       .  S
O123        C126   1.262       .  A
O124        C126   1.256       .  A
C126       C1093   1.471       .  S
O127        C132   1.269       .  A
O128        C130   1.272       .  A
C129        O131   1.288       .  A
C129       C1163   1.532       .  S
C130       C1053   1.464       .  S
C132       C1120   1.439       .  S
Fe133       O149   2.032       .  S
Fe133       O139   2.017       .  S
Fe133       O146   2.019       .  S
Fe133       O138   2.011       .  S
Fe133       O144   1.950       .  S
Fe134       O137   2.096       .  S
Fe134       O141   2.080       .  S
Fe134       O145   2.088       .  S
Fe134       O150   2.037       .  S
Fe134       O144   1.911       .  S
Fe135       O153   2.167       .  S
Fe135       O140   2.083       .  S
Fe135       O147   2.181       .  S
Fe135       O136   2.175       .  S
Fe135       O144   1.935       .  S
O136        C143   1.303       .  A
O137        C151   1.276       .  A
O138        C143   1.278       .  A
O139        C142   1.238       .  A
O140        C152   1.278       .  A
O141        C154   1.280       .  A
C142        O147   1.274       .  A
C142       C1043   1.504       .  S
C143        C960   1.484       .  S
O145        C148   1.266       .  A
O146        C148   1.251       .  A
C148       C1000   1.470       .  S
O149        C154   1.269       .  A
O150        C152   1.275       .  A
C151        O153   1.290       .  A
C151        C970   1.541       .  S
C152        C990   1.464       .  S
C154        C980   1.435       .  S
Fe155       O171   2.043       .  S
Fe155       O161   2.024       .  S
Fe155       O168   2.028       .  S
Fe155       O160   2.017       .  S
Fe155       O166   1.960       .  S
Fe156       O159   2.093       .  S
Fe156       O163   2.084       .  S
Fe156       O167   2.075       .  S
Fe156       O172   2.017       .  S
Fe156       O166   1.921       .  S
Fe157       O175   2.164       .  S
Fe157       O162   2.095       .  S
Fe157       O169   2.197       .  S
Fe157       O158   2.121       .  S
Fe157       O166   1.956       .  S
O158        C165   1.287       .  A
O159        C173   1.278       .  A
O160        C165   1.277       .  A
O161        C164   1.244       .  A
O162        C174   1.279       .  A
O163        C176   1.278       .  A
C164        O169   1.284       .  A
C164       C1023   1.510       .  S
C165        C920   1.453       .  S
O167        C170   1.263       .  A
O168        C170   1.252       .  A
C170        C950   1.468       .  S
O171        C176   1.268       .  A
O172        C174   1.270       .  A
C173        O175   1.289       .  A
C173        C940   1.530       .  S
C174       C1003   1.461       .  S
C176        C933   1.437       .  S
Fe177       O193   2.017       .  S
Fe177       O183   2.020       .  S
Fe177       O190   2.045       .  S
Fe177       O182   2.010       .  S
Fe177       O188   1.969       .  S
Fe178       O181   2.086       .  S
Fe178       O185   2.080       .  S
Fe178       O189   2.065       .  S
Fe178       O194   2.029       .  S
Fe178       O188   1.911       .  S
Fe179       O197   2.175       .  S
Fe179       O184   2.083       .  S
Fe179       O191   2.136       .  S
Fe179       O180   2.168       .  S
Fe179       O188   1.937       .  S
O180        C187   1.299       .  A
O181        C195   1.276       .  A
O182        C187   1.273       .  A
O183        C186   1.251       .  A
O184        C196   1.276       .  A
O185        C198   1.278       .  A
C186        O191   1.273       .  A
C186       C1073   1.479       .  S
C187        C890   1.488       .  S
O189        C192   1.262       .  A
O190        C192   1.256       .  A
C192        C993   1.466       .  S
O193        C198   1.266       .  A
O194        C196   1.270       .  A
C195        O197   1.291       .  A
C195        C910   1.539       .  S
C196        C953   1.463       .  S
C198        C900   1.438       .  S
Fe199       O215   2.040       .  S
Fe199       O205   2.014       .  S
Fe199       O212   2.022       .  S
Fe199       O204   2.011       .  S
Fe199       O210   1.944       .  S
Fe200       O203   2.088       .  S
Fe200       O207   2.076       .  S
Fe200       O211   2.084       .  S
Fe200       O216   2.030       .  S
Fe200       O210   1.913       .  S
Fe201       O219   2.154       .  S
Fe201       O206   2.095       .  S
Fe201       O213   2.200       .  S
Fe201       O202   2.156       .  S
Fe201       O210   1.936       .  S
O202        C209   1.298       .  A
O203        C217   1.275       .  A
O204        C209   1.281       .  A
O205        C208   1.233       .  A
O206        C218   1.281       .  A
O207        C220   1.277       .  A
C208        O213   1.278       .  A
C208       C1153   1.507       .  S
C209        C863   1.464       .  S
O211        C214   1.265       .  A
O212        C214   1.251       .  A
C214        C880   1.470       .  S
O215        C220   1.267       .  A
O216        C218   1.274       .  A
C217        O219   1.288       .  A
C217        C943   1.530       .  S
C218        C873   1.466       .  S
C220        C983   1.436       .  S
Fe221       O237   2.040       .  S
Fe221       O227   2.018       .  S
Fe221       O234   2.026       .  S
Fe221       O226   2.014       .  S
Fe221       O232   1.955       .  S
Fe222       O225   2.086       .  S
Fe222       O229   2.080       .  S
Fe222       O233   2.073       .  S
Fe222       O238   2.021       .  S
Fe222       O232   1.916       .  S
Fe223       O241   2.181       .  S
Fe223       O228   2.093       .  S
Fe223       O235   2.192       .  S
Fe223       O224   2.170       .  S
Fe223       O232   1.941       .  S
O224        C231   1.300       .  A
O225        C239   1.275       .  A
O226        C231   1.277       .  A
O227        C230   1.239       .  A
O228        C240   1.278       .  A
O229        C242   1.276       .  A
C230        O235   1.279       .  A
C230       C1203   1.508       .  S
C231        C840   1.479       .  S
O233        C236   1.263       .  A
O234        C236   1.253       .  A
C236        C850   1.466       .  S
O237        C242   1.266       .  A
O238        C240   1.270       .  A
C239        O241   1.293       .  A
C239        C973   1.538       .  S
C240        C883   1.462       .  S
C242        C903   1.440       .  S
Fe243       O259   2.020       .  S
Fe243       O249   2.019       .  S
Fe243       O256   2.049       .  S
Fe243       O248   2.010       .  S
Fe243       O254   1.968       .  S
Fe244       O247   2.092       .  S
Fe244       O251   2.080       .  S
Fe244       O255   2.070       .  S
Fe244       O260   2.030       .  S
Fe244       O254   1.913       .  S
Fe245       O263   2.172       .  S
Fe245       O250   2.075       .  S
Fe245       O257   2.145       .  S
Fe245       O246   2.150       .  S
Fe245       O254   1.944       .  S
O246        C253   1.294       .  A
O247        C261   1.277       .  A
O248        C253   1.275       .  A
O249        C252   1.251       .  A
O250        C262   1.274       .  A
O251        C264   1.278       .  A
C252        O257   1.275       .  A
C252       C1113   1.484       .  S
C253        C830   1.472       .  S
O255        C258   1.262       .  A
O256        C258   1.256       .  A
C258        C870   1.468       .  S
O259        C264   1.268       .  A
O260        C262   1.271       .  A
C261        O263   1.290       .  A
C261        C913   1.538       .  S
C262        C853   1.460       .  S
C264        C930   1.435       .  S
Fe265       O281   2.033       .  S
Fe265       O271   2.139       .  S
Fe265       O278   2.081       .  S
Fe265       O270   1.997       .  S
Fe265       O276   1.894       .  S
Fe266       O269   2.030       .  S
Fe266       O273   2.080       .  S
Fe266       O277   2.013       .  S
Fe266       O282   2.119       .  S
Fe266       O276   1.902       .  S
Fe267       O285   2.127       .  S
Fe267       O272   2.097       .  S
Fe267       O279   2.018       .  S
Fe267       O268   2.159       .  S
Fe267       O276   1.965       .  S
O268        C275   1.270       .  A
O269        C283   1.258       .  A
O270        C275   1.234       .  A
O271        C274   1.295       .  A
O272        C284   1.286       .  A
O273        C286   1.272       .  A
C274        O279   1.273       .  A
C274       C1063   1.485       .  S
C275        C780   1.489       .  S
O277        C280   1.265       .  A
O278        C280   1.280       .  A
C280        C800   1.467       .  S
O281        C286   1.260       .  A
O282        C284   1.286       .  A
C283        O285   1.281       .  A
C283        C810   1.471       .  S
C284        C793   1.507       .  S
C286        C823   1.472       .  S
Fe287       O303   2.069       .  S
Fe287       O293   2.031       .  S
Fe287       O300   2.049       .  S
Fe287       O292   2.021       .  S
Fe287       O298   1.952       .  S
Fe288       O291   2.032       .  S
Fe288       O295   2.057       .  S
Fe288       O299   2.078       .  S
Fe288       O304   2.070       .  S
Fe288       O298   1.904       .  S
Fe289       O307   2.098       .  S
Fe289       O294   2.131       .  S
Fe289       O301   2.124       .  S
Fe289       O290   2.181       .  S
Fe289       O298   1.936       .  S
O290        C297   1.277       .  A
O291        C305   1.272       .  A
O292        C297   1.240       .  A
O293        C296   1.282       .  A
O294        C306   1.282       .  A
O295        C308   1.259       .  A
C296        O301   1.289       .  A
C296       C1033   1.452       .  S
C297        C740   1.505       .  S
O299        C302   1.278       .  A
O300        C302   1.268       .  A
C302        C760   1.448       .  S
O303        C308   1.259       .  A
O304        C306   1.271       .  A
C305        O307   1.280       .  A
C305        C820   1.466       .  S
C306        C750   1.511       .  S
C308        C770   1.466       .  S
Fe309       O325   2.039       .  S
Fe309       O315   2.069       .  S
Fe309       O322   2.074       .  S
Fe309       O314   1.981       .  S
Fe309       O320   1.943       .  S
Fe310       O313   2.031       .  S
Fe310       O317   2.079       .  S
Fe310       O321   2.027       .  S
Fe310       O326   2.081       .  S
Fe310       O320   1.946       .  S
Fe311       O329   2.121       .  S
Fe311       O316   2.120       .  S
Fe311       O323   2.074       .  S
Fe311       O312   2.167       .  S
Fe311       O320   1.940       .  S
O312        C319   1.292       .  A
O313        C327   1.276       .  A
O314        C319   1.252       .  A
O315        C318   1.273       .  A
O316        C328   1.278       .  A
O317        C330   1.264       .  A
C318        O323   1.272       .  A
C318       C1013   1.484       .  S
C319        C710   1.480       .  S
O321        C324   1.270       .  A
O322        C324   1.276       .  A
C324        C720   1.461       .  S
O325        C330   1.252       .  A
O326        C328   1.270       .  A
C327        O329   1.289       .  A
C327        C773   1.471       .  S
C328        C730   1.507       .  S
C330        C813   1.459       .  S
Fe331       O347   2.031       .  S
Fe331       O337   2.078       .  S
Fe331       O344   2.108       .  S
Fe331       O336   1.982       .  S
Fe331       O342   1.926       .  S
Fe332       O335   2.020       .  S
Fe332       O339   2.079       .  S
Fe332       O343   1.999       .  S
Fe332       O348   2.103       .  S
Fe332       O342   1.933       .  S
Fe333       O351   2.133       .  S
Fe333       O338   2.111       .  S
Fe333       O345   2.064       .  S
Fe333       O334   2.162       .  S
Fe333       O342   1.945       .  S
O334        C341   1.288       .  A
O335        C349   1.267       .  A
O336        C341   1.252       .  A
O337        C340   1.277       .  A
O338        C350   1.280       .  A
O339        C352   1.263       .  A
C340        O345   1.272       .  A
C340       C1193   1.482       .  S
C341        C680   1.498       .  S
O343        C346   1.269       .  A
O344        C346   1.286       .  A
C346        C803   1.453       .  S
O347        C352   1.248       .  A
O348        C350   1.276       .  A
C349        O351   1.287       .  A
C349        C700   1.473       .  S
C350        C753   1.513       .  S
C352        C690   1.463       .  S
Fe353       O369   2.038       .  S
Fe353       O359   2.077       .  S
Fe353       O366   2.076       .  S
Fe353       O358   1.995       .  S
Fe353       O364   1.949       .  S
Fe354       O357   2.020       .  S
Fe354       O361   2.086       .  S
Fe354       O365   2.035       .  S
Fe354       O370   2.108       .  S
Fe354       O364   1.953       .  S
Fe355       O373   2.114       .  S
Fe355       O360   2.093       .  S
Fe355       O367   2.057       .  S
Fe355       O356   2.157       .  S
Fe355       O364   1.948       .  S
O356        C363   1.291       .  A
O357        C371   1.271       .  A
O358        C363   1.257       .  A
O359        C362   1.273       .  A
O360        C372   1.276       .  A
O361        C374   1.269       .  A
C362        O367   1.267       .  A
C362       C1143   1.484       .  S
C363        C660   1.485       .  S
O365        C368   1.268       .  A
O366        C368   1.272       .  A
C368        C763   1.458       .  S
O369        C374   1.255       .  A
O370        C372   1.274       .  A
C371        O373   1.285       .  A
C371        C670   1.468       .  S
C372        C733   1.496       .  S
C374        C703   1.460       .  S
Fe375       O391   2.028       .  S
Fe375       O381   2.051       .  S
Fe375       O388   2.071       .  S
Fe375       O380   1.968       .  S
Fe375       O386   1.951       .  S
Fe376       O379   2.011       .  S
Fe376       O383   2.086       .  S
Fe376       O387   2.036       .  S
Fe376       O392   2.090       .  S
Fe376       O386   1.964       .  S
Fe377       O395   2.128       .  S
Fe377       O382   2.112       .  S
Fe377       O389   2.069       .  S
Fe377       O378   2.188       .  S
Fe377       O386   1.951       .  S
O378        C385   1.298       .  A
O379        C393   1.272       .  A
O380        C385   1.253       .  A
O381        C384   1.267       .  A
O382        C394   1.278       .  A
O383        C396   1.269       .  A
C384        O389   1.268       .  A
C384       C1100   1.478       .  S
C385        C650   1.497       .  S
O387        C390   1.266       .  A
O388        C390   1.272       .  A
C390        C723   1.463       .  S
O391        C396   1.251       .  A
O392        C394   1.270       .  A
C393        O395   1.288       .  A
C393        C693   1.469       .  S
C394        C790   1.495       .  S
C396        C673   1.455       .  S
Fe397       O413   2.037       .  S
Fe397       O403   2.122       .  S
Fe397       O410   2.079       .  S
Fe397       O402   2.021       .  S
Fe397       O408   1.915       .  S
Fe398       O401   2.022       .  S
Fe398       O405   2.081       .  S
Fe398       O409   2.022       .  S
Fe398       O414   2.141       .  S
Fe398       O408   1.915       .  S
Fe399       O417   2.125       .  S
Fe399       O404   2.099       .  S
Fe399       O411   2.043       .  S
Fe399       O400   2.152       .  S
Fe399       O408   1.947       .  S
O400        C407   1.279       .  A
O401        C415   1.259       .  A
O402        C407   1.242       .  A
O403        C406   1.287       .  A
O404        C416   1.285       .  A
O405        C418   1.274       .  A
C406        O411   1.273       .  A
C406        C963   1.490       .  S
C407        C743   1.489       .  S
O409        C412   1.266       .  A
O410        C412   1.275       .  A
C412        C620   1.468       .  S
O413        C418   1.260       .  A
O414        C416   1.288       .  A
C415        O417   1.281       .  A
C415        C630   1.475       .  S
C416        C610   1.515       .  S
C418        C640   1.464       .  S
Fe419       O435   2.035       .  S
Fe419       O425   2.026       .  S
Fe419       O432   2.053       .  S
Fe419       O424   2.017       .  S
Fe419       O430   1.946       .  S
Fe420       O423   2.036       .  S
Fe420       O427   2.071       .  S
Fe420       O431   2.084       .  S
Fe420       O436   2.063       .  S
Fe420       O430   1.907       .  S
Fe421       O439   2.100       .  S
Fe421       O426   2.139       .  S
Fe421       O433   2.134       .  S
Fe421       O422   2.216       .  S
Fe421       O430   1.939       .  S
O422        C429   1.279       .  A
O423        C437   1.277       .  A
O424        C429   1.231       .  A
O425        C428   1.283       .  A
O426        C438   1.283       .  A
O427        C440   1.261       .  A
C428        O433   1.292       .  A
C428        C923   1.455       .  S
C429        C713   1.518       .  S
O431        C434   1.283       .  A
O432        C434   1.267       .  A
C434        C590   1.452       .  S
O435        C440   1.251       .  A
O436        C438   1.266       .  A
C437        O439   1.284       .  A
C437        C643   1.467       .  S
C438        C580   1.509       .  S
C440        C603   1.464       .  S
Fe441       O457   2.027       .  S
Fe441       O447   2.143       .  S
Fe441       O454   2.070       .  S
Fe441       O446   1.995       .  S
Fe441       O452   1.893       .  S
Fe442       O445   2.029       .  S
Fe442       O449   2.087       .  S
Fe442       O453   2.031       .  S
Fe442       O458   2.132       .  S
Fe442       O452   1.901       .  S
Fe443       O461   2.120       .  S
Fe443       O448   2.096       .  S
Fe443       O455   2.021       .  S
Fe443       O444   2.165       .  S
Fe443       O452   1.973       .  S
O444        C451   1.268       .  A
O445        C459   1.256       .  A
O446        C451   1.229       .  A
O447        C450   1.296       .  A
O448        C460   1.288       .  A
O449        C462   1.275       .  A
C450        O455   1.274       .  A
C450        C893   1.489       .  S
C451        C783   1.495       .  S
O453        C456   1.264       .  A
O454        C456   1.276       .  A
C456        C560   1.472       .  S
O457        C462   1.260       .  A
O458        C460   1.291       .  A
C459        O461   1.277       .  A
C459        C600   1.472       .  S
C460        C570   1.510       .  S
C462        C633   1.467       .  S
Fe463       O479   2.040       .  S
Fe463       O469   2.032       .  S
Fe463       O476   2.089       .  S
Fe463       O468   2.005       .  S
Fe463       O474   1.942       .  S
Fe464       O467   2.018       .  S
Fe464       O471   2.082       .  S
Fe464       O475   2.058       .  S
Fe464       O480   2.103       .  S
Fe464       O474   1.908       .  S
Fe465       O483   2.107       .  S
Fe465       O470   2.107       .  S
Fe465       O477   2.137       .  S
Fe465       O466   2.184       .  S
Fe465       O474   1.929       .  S
O466        C473   1.270       .  A
O467        C481   1.270       .  A
O468        C473   1.230       .  A
O469        C472   1.287       .  A
O470        C482   1.279       .  A
O471        C484   1.267       .  A
C472        O477   1.296       .  A
C472        C860   1.465       .  S
C473        C663   1.499       .  S
O475        C478   1.270       .  A
O476        C478   1.278       .  A
C478        C623   1.463       .  S
O479        C484   1.256       .  A
O480        C482   1.280       .  A
C481        O483   1.282       .  A
C481        C540   1.465       .  S
C482        C583   1.516       .  S
C484        C550   1.469       .  S
Fe485       O501   2.028       .  S
Fe485       O491   2.089       .  S
Fe485       O498   2.114       .  S
Fe485       O490   1.989       .  S
Fe485       O496   1.919       .  S
Fe486       O489   2.013       .  S
Fe486       O493   2.083       .  S
Fe486       O497   1.990       .  S
Fe486       O502   2.123       .  S
Fe486       O496   1.934       .  S
Fe487       O505   2.135       .  S
Fe487       O492   2.113       .  S
Fe487       O499   2.068       .  S
Fe487       O488   2.162       .  S
Fe487       O496   1.933       .  S
O488        C495   1.287       .  A
O489        C503   1.264       .  A
O490        C495   1.252       .  A
O491        C494   1.279       .  A
O492        C504   1.281       .  A
O493        C506   1.264       .  A
C494        O499   1.273       .  A
C494        C843   1.487       .  S
C495        C683   1.500       .  S
O497        C500   1.268       .  A
O498        C500   1.287       .  A
C500        C563   1.454       .  S
O501        C506   1.247       .  A
O502        C504   1.279       .  A
C503        O505   1.287       .  A
C503        C553   1.472       .  S
C504        C613   1.511       .  S
C506        C530   1.460       .  S
Fe507       O523   2.034       .  S
Fe507       O513   2.060       .  S
Fe507       O520   2.097       .  S
Fe507       O512   1.971       .  S
Fe507       O518   1.940       .  S
Fe508       O511   2.009       .  S
Fe508       O515   2.081       .  S
Fe508       O519   2.016       .  S
Fe508       O524   2.092       .  S
Fe508       O518   1.959       .  S
Fe509       O527   2.132       .  S
Fe509       O514   2.110       .  S
Fe509       O521   2.071       .  S
Fe509       O510   2.183       .  S
Fe509       O518   1.946       .  S
O510        C517   1.295       .  A
O511        C525   1.277       .  A
O512        C517   1.252       .  A
O513        C516   1.270       .  A
O514        C526   1.274       .  A
O515        C528   1.263       .  A
C516        O521   1.268       .  A
C516        C833   1.475       .  S
C517        C653   1.502       .  S
O519        C522   1.271       .  A
O520        C522   1.282       .  A
C522        C593   1.455       .  S
O523        C528   1.248       .  A
O524        C526   1.268       .  A
C525        O527   1.293       .  A
C525        C533   1.467       .  S
C526        C573   1.498       .  S
C528        C543   1.461       .  S
C529        C530   1.406       .  A
C529        C534   1.396       .  A
C529        H535   1.084       .  S
C530        C531   1.396       .  A
C531        C532   1.396       .  A
C531        H536   1.083       .  S
C532        C533   1.411       .  A
C532        H537   1.084       .  S
C533        C534   1.399       .  A
C534        H538   1.083       .  S
C539        C540   1.399       .  A
C539        C544   1.396       .  A
C539        H545   1.084       .  S
C540        C541   1.411       .  A
C541        C542   1.398       .  A
C541        H546   1.083       .  S
C542        C543   1.396       .  A
C542        H547   1.083       .  S
C543        C544   1.405       .  A
C544        H548   1.083       .  S
C549        C550   1.409       .  A
C549        C554   1.395       .  A
C549        H555   1.083       .  S
C550        C551   1.398       .  A
C551        C552   1.395       .  A
C551        H556   1.083       .  S
C552        C553   1.412       .  A
C552        H557   1.084       .  S
C553        C554   1.399       .  A
C554        H558   1.083       .  S
C559        C560   1.407       .  A
C559        C564   1.393       .  A
C559        H565   1.083       .  S
C560        C561   1.401       .  A
C561        C562   1.392       .  A
C561        H566   1.081       .  S
C562        C563   1.402       .  A
C562        H567   1.078       .  S
C563        C564   1.402       .  A
C564        H568   1.083       .  S
C569        C570   1.411       .  A
C569        C574   1.405       .  A
C569        H575   1.083       .  S
C570        C571   1.412       .  A
C571        C572   1.416       .  A
C571        H576   1.082       .  S
C572        C573   1.410       .  A
C572        H577   1.083       .  S
C573        C574   1.403       .  A
C574        H578   1.079       .  S
C579        C580   1.409       .  A
C579        C584   1.405       .  A
C579        H585   1.083       .  S
C580        C581   1.411       .  A
C581        C582   1.420       .  A
C581        H586   1.083       .  S
C582        C583   1.415       .  A
C582        H587   1.082       .  S
C583        C584   1.410       .  A
C584        H588   1.083       .  S
C589        C590   1.383       .  A
C589        C594   1.387       .  A
C589        H595   1.083       .  S
C590        C591   1.404       .  A
C591        C592   1.393       .  A
C591        H596   1.066       .  S
C592        C593   1.388       .  A
C592        H597   1.083       .  S
C593        C594   1.404       .  A
C594        H598   1.063       .  S
C599        C600   1.411       .  A
C599        C604   1.393       .  A
C599        H605   1.084       .  S
C600        C601   1.401       .  A
C601        C602   1.395       .  A
C601        H606   1.083       .  S
C602        C603   1.406       .  A
C602        H607   1.084       .  S
C603        C604   1.397       .  A
C604        H608   1.083       .  S
C609        C610   1.414       .  A
C609        C614   1.416       .  A
C609        H615   1.083       .  S
C610        C611   1.410       .  A
C611        C612   1.414       .  A
C611        H616   1.083       .  S
C612        C613   1.411       .  A
C612        H617   1.083       .  S
C613        C614   1.408       .  A
C614        H618   1.082       .  S
C619        C620   1.403       .  A
C619        C624   1.396       .  A
C619        H625   1.083       .  S
C620        C621   1.405       .  A
C621        C622   1.384       .  A
C621        H626   1.083       .  S
C622        C623   1.401       .  A
C622        H627   1.083       .  S
C623        C624   1.404       .  A
C624        H628   1.081       .  S
C629        C630   1.400       .  A
C629        C634   1.396       .  A
C629        H635   1.083       .  S
C630        C631   1.412       .  A
C631        C632   1.394       .  A
C631        H636   1.083       .  S
C632        C633   1.397       .  A
C632        H637   1.083       .  S
C633        C634   1.409       .  A
C634        H638   1.084       .  S
C639        C640   1.408       .  A
C639        C644   1.397       .  A
C639        H645   1.084       .  S
C640        C641   1.399       .  A
C641        C642   1.393       .  A
C641        H646   1.083       .  S
C642        C643   1.408       .  A
C642        H647   1.084       .  S
C643        C644   1.399       .  A
C644        H648   1.083       .  S
C649        C650   1.428       .  A
C649        C654   1.407       .  A
C649        H655   1.083       .  S
C650        C651   1.392       .  A
C651        C652   1.403   1_455  A
C651        H656   1.083       .  S
C652        C653   1.427       .  A
C652        H657   1.083       .  S
C653        C654   1.394   1_655  A
C654        H658   1.083       .  S
C659        C660   1.422       .  A
C659        C664   1.413       .  A
C659        H665   1.079       .  S
C660        C661   1.392       .  A
C661        C662   1.396       .  A
C661        H666   1.084       .  S
C662        C663   1.421       .  A
C662        H667   1.081       .  S
C663        C664   1.399       .  A
C664        H668   1.083       .  S
C669        C670   1.401       .  A
C669        C674   1.394       .  A
C669        H675   1.083       .  S
C670        C671   1.411       .  A
C671        C672   1.395       .  A
C671        H676   1.084       .  S
C672        C673   1.396       .  A
C672        H677   1.083       .  S
C673        C674   1.403       .  A
C674        H678   1.084       .  S
C679        C680   1.424       .  A
C679        C684   1.405   1_565  A
C679        H685   1.083       .  S
C680        C681   1.396       .  A
C681        C682   1.404   1_565  A
C681        H686   1.083       .  S
C682        C683   1.424       .  A
C682        H687   1.083       .  S
C683        C684   1.396       .  A
C684        H688   1.083       .  S
C689        C690   1.407       .  A
C689        C694   1.398       .  A
C689        H695   1.084       .  S
C690        C691   1.397       .  A
C691        C692   1.396       .  A
C691        H696   1.083       .  S
C692        C693   1.411       .  A
C692        H697   1.084       .  S
C693        C694   1.400       .  A
C694        H698   1.084       .  S
C699        C700   1.402       .  A
C699        C704   1.396       .  A
C699        H705   1.083       .  S
C700        C701   1.412       .  A
C701        C702   1.397       .  A
C701        H706   1.083       .  S
C702        C703   1.396       .  A
C702        H707   1.083       .  S
C703        C704   1.404       .  A
C704        H708   1.084       .  S
C709        C710   1.427       .  A
C709        C714   1.423       .  A
C709        H715   1.083       .  S
C710        C711   1.388       .  A
C711        C712   1.391   1_455  A
C711        H716   1.085       .  S
C712        C713   1.424       .  A
C712        H717   1.082       .  S
C713        C714   1.404   1_655  A
C714        H718   1.082       .  S
C719        C720   1.385       .  A
C719        C724   1.390       .  A
C719        H725   1.083       .  S
C720        C721   1.408       .  A
C721        C722   1.394       .  A
C721        H726   1.066       .  S
C722        C723   1.386       .  A
C722        H727   1.080       .  S
C723        C724   1.402       .  A
C724        H728   1.058       .  S
C729        C730   1.411       .  A
C729        C734   1.418       .  A
C729        H735   1.081       .  S
C730        C731   1.411       .  A
C731        C732   1.401       .  A
C731        H736   1.083       .  S
C732        C733   1.401       .  A
C732        H737   1.080       .  S
C733        C734   1.411       .  A
C734        H738   1.083       .  S
C739        C740   1.419       .  A
C739        C744   1.392       .  A
C739        H745   1.083       .  S
C740        C741   1.403       .  A
C741        C742   1.417       .  A
C741        H746   1.082       .  S
C742        C743   1.422       .  A
C742        H747   1.082       .  S
C743        C744   1.392       .  A
C744        H748   1.084       .  S
C749        C750   1.408       .  A
C749        C754   1.403       .  A
C749        H755   1.082       .  S
C750        C751   1.414       .  A
C751        C752   1.421       .  A
C751        H756   1.083       .  S
C752        C753   1.412       .  A
C752        H757   1.083       .  S
C753        C754   1.410       .  A
C754        H758   1.083       .  S
C759        C760   1.410       .  A
C759        C764   1.397       .  A
C759        H765   1.073       .  S
C760        C761   1.384       .  A
C761        C762   1.382       .  A
C761        H766   1.084       .  S
C762        C763   1.399       .  A
C762        H767   1.057       .  S
C763        C764   1.391       .  A
C764        H768   1.083       .  S
C769        C770   1.404       .  A
C769        C774   1.398       .  A
C769        H775   1.084       .  S
C770        C771   1.401       .  A
C771        C772   1.393       .  A
C771        H776   1.083       .  S
C772        C773   1.406       .  A
C772        H777   1.084       .  S
C773        C774   1.404       .  A
C774        H778   1.083       .  S
C779        C780   1.418       .  A
C779        C784   1.404       .  A
C779        H785   1.083       .  S
C780        C781   1.394   1_565  A
C781        C782   1.403       .  A
C781        H786   1.083       .  S
C782        C783   1.422       .  A
C782        H787   1.083       .  S
C783        C784   1.397   1_545  A
C784        H788   1.083       .  S
C789        C790   1.410       .  A
C789        C794   1.417       .  A
C789        H795   1.083       .  S
C790        C791   1.402       .  A
C791        C792   1.401       .  A
C791        H796   1.079       .  S
C792        C793   1.410       .  A
C792        H797   1.083       .  S
C793        C794   1.412       .  A
C794        H798   1.083       .  S
C799        C800   1.401       .  A
C799        C804   1.391       .  A
C799        H805   1.082       .  S
C800        C801   1.409       .  A
C801        C802   1.393       .  A
C801        H806   1.083       .  S
C802        C803   1.400       .  A
C802        H807   1.083       .  S
C803        C804   1.402       .  A
C804        H808   1.078       .  S
C809        C810   1.412       .  A
C809        C814   1.398       .  A
C809        H815   1.083       .  S
C810        C811   1.402       .  A
C811        C812   1.394       .  A
C811        H816   1.083       .  S
C812        C813   1.403       .  A
C812        H817   1.084       .  S
C813        C814   1.397       .  A
C814        H818   1.083       .  S
C819        C820   1.397       .  A
C819        C824   1.399       .  A
C819        H825   1.083       .  S
C820        C821   1.408       .  A
C821        C822   1.393       .  A
C821        H826   1.084       .  S
C822        C823   1.399       .  A
C822        H827   1.083       .  S
C823        C824   1.412       .  A
C824        H828   1.083       .  S
C829        C830   1.403       .  A
C829        C834   1.403   1_554  A
C829        H835   1.084       .  S
C830        C831   1.406       .  A
C831        C832   1.394   1_554  A
C831        H836   1.083       .  S
C832        C833   1.400       .  A
C832        H837   1.083       .  S
C833        C834   1.409       .  A
C834        H838   1.084       .  S
C839        C840   1.407       .  A
C839        C844   1.397   1_554  A
C839        H845   1.084       .  S
C840        C841   1.402       .  A
C841        C842   1.406   1_554  A
C841        H846   1.083       .  S
C842        C843   1.412       .  A
C842        H847   1.083       .  S
C843        C844   1.403       .  A
C844        H848   1.083       .  S
C849        C850   1.399       .  A
C849        C854   1.391       .  A
C849        H855   1.083       .  S
C850        C851   1.409       .  A
C851        C852   1.393       .  A
C851        H856   1.083       .  S
C852        C853   1.397       .  A
C852        H857   1.083       .  S
C853        C854   1.406       .  A
C854        H858   1.084       .  S
C859        C860   1.399       .  A
C859        C864   1.391   1_556  A
C859        H865   1.083       .  S
C860        C861   1.406       .  A
C861        C862   1.401   1_556  A
C861        H866   1.084       .  S
C862        C863   1.402       .  A
C862        H867   1.084       .  S
C863        C864   1.403       .  A
C864        H868   1.084       .  S
C869        C870   1.406       .  A
C869        C874   1.396       .  A
C869        H875   1.083       .  S
C870        C871   1.400       .  A
C871        C872   1.394       .  A
C871        H876   1.083       .  S
C872        C873   1.408       .  A
C872        H877   1.084       .  S
C873        C874   1.401       .  A
C874        H878   1.083       .  S
C879        C880   1.411       .  A
C879        C884   1.394       .  A
C879        H885   1.083       .  S
C880        C881   1.398       .  A
C881        C882   1.394       .  A
C881        H886   1.083       .  S
C882        C883   1.409       .  A
C882        H887   1.084       .  S
C883        C884   1.396       .  A
C884        H888   1.084       .  S
C889        C890   1.413       .  A
C889        C894   1.399       .  A
C889        H895   1.083       .  S
C890        C891   1.400       .  A
C891        C892   1.402       .  A
C891        H896   1.083       .  S
C892        C893   1.416       .  A
C892        H897   1.083       .  S
C893        C894   1.401       .  A
C894        H898   1.083       .  S
C899        C900   1.402       .  A
C899        C904   1.390       .  A
C899        H905   1.070       .  S
C900        C901   1.384       .  A
C901        C902   1.384       .  A
C901        H906   1.083       .  S
C902        C903   1.399       .  A
C902        H907   1.067       .  S
C903        C904   1.387       .  A
C904        H908   1.083       .  S
C909        C910   1.414       .  A
C909        C914   1.409       .  A
C909        H915   1.082       .  S
C910        C911   1.419       .  A
C911        C912   1.434       .  A
C911        H916   1.082       .  S
C912        C913   1.420       .  A
C912        H917   1.082       .  S
C913        C914   1.413       .  A
C914        H918   1.083       .  S
C919        C920   1.403       .  A
C919        C924   1.397       .  A
C919        H925   1.084       .  S
C920        C921   1.399       .  A
C921        C922   1.390       .  A
C921        H926   1.083       .  S
C922        C923   1.400       .  A
C922        H927   1.083       .  S
C923        C924   1.401       .  A
C924        H928   1.084       .  S
C929        C930   1.380       .  A
C929        C934   1.382       .  A
C929        H935   1.083       .  S
C930        C931   1.401       .  A
C931        C932   1.390       .  A
C931        H936   1.065       .  S
C932        C933   1.384       .  A
C932        H937   1.083       .  S
C933        C934   1.392       .  A
C934        H938   1.060       .  S
C939        C940   1.417       .  A
C939        C944   1.430       .  A
C939        H945   1.082       .  S
C940        C941   1.412       .  A
C941        C942   1.408       .  A
C941        H946   1.083       .  S
C942        C943   1.412       .  A
C942        H947   1.083       .  S
C943        C944   1.417       .  A
C944        H948   1.082       .  S
C949        C950   1.399       .  A
C949        C954   1.393       .  A
C949        H955   1.083       .  S
C950        C951   1.409       .  A
C951        C952   1.395       .  A
C951        H956   1.083       .  S
C952        C953   1.398       .  A
C952        H957   1.083       .  S
C953        C954   1.408       .  A
C954        H958   1.084       .  S
C959        C960   1.410       .  A
C959        C964   1.399       .  A
C959        H965   1.083       .  S
C960        C961   1.401       .  A
C961        C962   1.404       .  A
C961        H966   1.083       .  S
C962        C963   1.414       .  A
C962        H967   1.083       .  S
C963        C964   1.403       .  A
C964        H968   1.083       .  S
C969        C970   1.420       .  A
C969        C974   1.435       .  A
C969        H975   1.082       .  S
C970        C971   1.414       .  A
C971        C972   1.410       .  A
C971        H976   1.083       .  S
C972        C973   1.413       .  A
C972        H977   1.083       .  S
C973        C974   1.419       .  A
C974        H978   1.082       .  S
C979        C980   1.401       .  A
C979        C984   1.385       .  A
C979        H985   1.066       .  S
C980        C981   1.385       .  A
C981        C982   1.386       .  A
C981        H986   1.083       .  S
C982        C983   1.402       .  A
C982        H987   1.069       .  S
C983        C984   1.384       .  A
C984        H988   1.083       .  S
C989        C990   1.405       .  A
C989        C994   1.392       .  A
C989        H995   1.084       .  S
C990        C991   1.401       .  A
C991        C992   1.395       .  A
C991        H996   1.083       .  S
C992        C993   1.406       .  A
C992        H997   1.083       .  S
C993        C994   1.401       .  A
C994        H998   1.083       .  S
C999       C1000   1.398       .  A
C999       C1004   1.395       .  A
C999       H1005   1.083       .  S
C1000      C1001   1.411       .  A
C1001      C1002   1.394       .  A
C1001      H1006   1.083       .  S
C1002      C1003   1.396       .  A
C1002      H1007   1.084       .  S
C1003      C1004   1.410       .  A
C1004      H1008   1.084       .  S
C1009      C1010   1.403       .  A
C1009      C1014   1.405       .  A
C1009      H1015   1.083       .  S
C1010      C1011   1.405       .  A
C1011      C1012   1.396       .  A
C1011      H1016   1.084       .  S
C1012      C1013   1.403       .  A
C1012      H1017   1.083       .  S
C1013      C1014   1.411       .  A
C1014      H1018   1.083       .  S
C1019      C1020   1.420       .  A
C1019      C1024   1.422       .  A
C1019      H1025   1.081       .  S
C1020      C1021   1.391       .  A
C1021      C1022   1.393   1_455  A
C1021      H1026   1.085       .  S
C1022      C1023   1.418       .  A
C1022      H1027   1.070       .  S
C1023      C1024   1.406   1_655  A
C1024      H1028   1.082       .  S
C1029      C1030   1.402       .  A
C1029      C1034   1.392       .  A
C1029      H1035   1.083       .  S
C1030      C1031   1.400       .  A
C1031      C1032   1.395       .  A
C1031      H1036   1.083       .  S
C1032      C1033   1.401       .  A
C1032      H1037   1.083       .  S
C1033      C1034   1.398       .  A
C1034      H1038   1.084       .  S
C1039      C1040   1.392       .  A
C1039      C1044   1.393       .  A
C1039      H1045   1.085       .  S
C1040      C1041   1.418       .  A
C1041      C1042   1.418       .  A
C1041      H1046   1.081       .  S
C1042      C1043   1.404       .  A
C1042      H1047   1.082       .  S
C1043      C1044   1.417       .  A
C1044      H1048   1.076       .  S
C1049      C1050   1.400       .  A
C1049      C1054   1.393       .  A
C1049      H1055   1.083       .  S
C1050      C1051   1.407       .  A
C1051      C1052   1.396       .  A
C1051      H1056   1.083       .  S
C1052      C1053   1.400       .  A
C1052      H1057   1.083       .  S
C1053      C1054   1.406       .  A
C1054      H1058   1.084       .  S
C1059      C1060   1.398       .  A
C1059      C1064   1.400       .  A
C1059      H1065   1.083       .  S
C1060      C1061   1.412       .  A
C1061      C1062   1.396       .  A
C1061      H1066   1.083       .  S
C1062      C1063   1.400       .  A
C1062      H1067   1.083       .  S
C1063      C1064   1.416       .  A
C1064      H1068   1.083       .  S
C1069      C1070   1.402   1_545  A
C1069      C1074   1.416       .  A
C1069      H1075   1.082       .  S
C1070      C1071   1.419       .  A
C1071      C1072   1.393   1_565  A
C1071      H1076   1.075       .  S
C1072      C1073   1.390       .  A
C1072      H1077   1.085       .  S
C1073      C1074   1.419       .  A
C1074      H1078   1.080       .  S
C1079      C1080   1.399       .  A
C1079      C1084   1.390       .  A
C1079      H1085   1.083       .  S
C1080      C1081   1.408       .  A
C1081      C1082   1.391       .  A
C1081      H1086   1.083       .  S
C1082      C1083   1.396       .  A
C1082      H1087   1.083       .  S
C1083      C1084   1.406       .  A
C1084      H1088   1.084       .  S
C1089      C1090   1.407       .  A
C1089      C1094   1.394       .  A
C1089      H1095   1.084       .  S
C1090      C1091   1.399       .  A
C1091      C1092   1.397       .  A
C1091      H1096   1.083       .  S
C1092      C1093   1.408       .  A
C1092      H1097   1.083       .  S
C1093      C1094   1.400       .  A
C1094      H1098   1.083       .  S
C1099      C1100   1.409       .  A
C1099      C1104   1.402   1_556  A
C1099      H1105   1.083       .  S
C1100      C1101   1.404       .  A
C1101      C1102   1.393   1_556  A
C1101      H1106   1.083       .  S
C1102      C1103   1.403       .  A
C1102      H1107   1.084       .  S
C1103      C1104   1.402       .  A
C1104      H1108   1.083       .  S
C1109      C1110   1.418       .  A
C1109      C1114   1.392       .  A
C1109      H1115   1.075       .  S
C1110      C1111   1.405       .  A
C1111      C1112   1.420   1_455  A
C1111      H1116   1.082       .  S
C1112      C1113   1.420       .  A
C1112      H1117   1.080       .  S
C1113      C1114   1.391   1_655  A
C1114      H1118   1.085       .  S
C1119      C1120   1.384       .  A
C1119      C1124   1.385       .  A
C1119      H1125   1.083       .  S
C1120      C1121   1.401       .  A
C1121      C1122   1.389       .  A
C1121      H1126   1.069       .  S
C1122      C1123   1.386       .  A
C1122      H1127   1.083       .  S
C1123      C1124   1.399       .  A
C1124      H1128   1.066       .  S
C1129      C1130   1.419       .  A
C1129      C1134   1.433       .  A
C1129      H1135   1.082       .  S
C1130      C1131   1.413       .  A
C1131      C1132   1.406       .  A
C1131      H1136   1.082       .  S
C1132      C1133   1.411       .  A
C1132      H1137   1.083       .  S
C1133      C1134   1.418       .  A
C1134      H1138   1.082       .  S
C1139      C1140   1.406       .  A
C1139      C1144   1.396   1_554  A
C1139      H1145   1.084       .  S
C1140      C1141   1.401       .  A
C1141      C1142   1.402   1_554  A
C1141      H1146   1.083       .  S
C1142      C1143   1.412       .  A
C1142      H1147   1.083       .  S
C1143      C1144   1.403       .  A
C1144      H1148   1.083       .  S
C1149      C1150   1.389       .  A
C1149      C1154   1.392       .  A
C1149      H1155   1.085       .  S
C1150      C1151   1.419       .  A
C1151      C1152   1.420       .  A
C1151      H1156   1.080       .  S
C1152      C1153   1.405       .  A
C1152      H1157   1.082       .  S
C1153      C1154   1.420       .  A
C1154      H1158   1.073       .  S
C1159      C1160   1.418       .  A
C1159      C1164   1.430       .  A
C1159      H1165   1.082       .  S
C1160      C1161   1.411       .  A
C1161      C1162   1.407       .  A
C1161      H1166   1.083       .  S
C1162      C1163   1.413       .  A
C1162      H1167   1.082       .  S
C1163      C1164   1.418       .  A
C1164      H1168   1.082       .  S
C1169      C1170   1.382       .  A
C1169      C1174   1.385       .  A
C1169      H1175   1.083       .  S
C1170      C1171   1.398       .  A
C1171      C1172   1.387       .  A
C1171      H1176   1.063       .  S
C1172      C1173   1.383       .  A
C1172      H1177   1.083       .  S
C1173      C1174   1.395       .  A
C1174      H1178   1.062       .  S
C1179      C1180   1.399       .  A
C1179      C1184   1.393       .  A
C1179      H1185   1.083       .  S
C1180      C1181   1.409       .  A
C1181      C1182   1.395       .  A
C1181      H1186   1.083       .  S
C1182      C1183   1.398       .  A
C1182      H1187   1.084       .  S
C1183      C1184   1.407       .  A
C1184      H1188   1.084       .  S
C1189      C1190   1.406       .  A
C1189      C1194   1.395   1_554  A
C1189      H1195   1.083       .  S
C1190      C1191   1.401       .  A
C1191      C1192   1.402   1_554  A
C1191      H1196   1.083       .  S
C1192      C1193   1.411       .  A
C1192      H1197   1.083       .  S
C1193      C1194   1.403       .  A
C1194      H1198   1.083       .  S
C1199      C1200   1.420       .  A
C1199      C1204   1.421   1_565  A
C1199      H1205   1.081       .  S
C1200      C1201   1.391   1_565  A
C1201      C1202   1.392       .  A
C1201      H1206   1.085       .  S
C1202      C1203   1.418       .  A
C1202      H1207   1.075       .  S
C1203      C1204   1.405       .  A
C1204      H1208   1.082       .  S
C1209      C1210   1.412       .  A
C1209      C1214   1.410       .  A
C1209      H1215   1.083       .  S
C1210      C1211   1.417       .  A
C1211      C1212   1.428       .  A
C1211      H1216   1.082       .  S
C1212      C1213   1.417       .  A
C1212      H1217   1.082       .  S
C1213      C1214   1.413       .  A
C1214      H1218   1.083       .  S
C1219      C1220   1.398       .  A
C1219      C1224   1.387       .  A
C1219      H1225   1.067       .  S
C1220      C1221   1.385       .  A
C1221      C1222   1.387       .  A
C1221      H1226   1.083       .  S
C1222      C1223   1.402       .  A
C1222      H1227   1.068       .  S
C1223      C1224   1.385       .  A
C1224      H1228   1.083       .  S
C1229      C1230   1.399       .  A
C1229      C1234   1.393       .  A
C1229      H1235   1.083       .  S
C1230      C1231   1.408       .  A
C1231      C1232   1.396       .  A
C1231      H1236   1.083       .  S
C1232      C1233   1.399       .  A
C1232      H1237   1.083       .  S
C1233      C1234   1.408       .  A
C1234      H1238   1.084       .  S
C1239      C1240   1.405       .  A
C1239      C1244   1.391       .  A
C1239      H1245   1.084       .  S
C1240      C1241   1.400       .  A
C1241      C1242   1.395       .  A
C1241      H1246   1.083       .  S
C1242      C1243   1.407       .  A
C1242      H1247   1.083       .  S
C1243      C1244   1.400       .  A
C1244      H1248   1.083       .  S
