geometry optimzed in LAMMPS
_audit_creation_date              2020-12-01 
_audit_creation_method            'lammps2cif' 
_symmetry_space_group_name_H-M    'P1' 
_symmetry_Int_Tables_number       1 
_symmetry_cell_setting            triclinic 
loop_ 
_symmetry_equiv_pos_as_xyz 
  x,y,z 
_cell_length_a                    53.45192884 
_cell_length_b                    53.41083833256014 
_cell_length_c                    59.03945449619767 
_cell_angle_alpha                 89.99773447428791 
_cell_angle_beta                  90.10465350354292 
_cell_angle_gamma                 89.94680145472223 
loop_ 
_atom_site_label 
_atom_site_type_symbol 
_atom_site_fract_x 
_atom_site_fract_y 
_atom_site_fract_z 
_atom_site_charge 
Fe1        Fe  0.38478350  0.69318512  0.12638750     1.65800
Fe2        Fe  0.43316508  0.66979167  0.15733637     1.73200
Fe3        Fe  0.44142662  0.72379677  0.12746093     1.54400
O4          O  0.43290035  0.71780242  0.09384284    -0.81500
O5          O  0.45227088  0.69517576  0.17691045    -0.79900
O6          O  0.39488966  0.70039060  0.09321917    -0.84100
O7          O  0.37760271  0.73006234  0.13318087    -0.78900
O8          O  0.47280511  0.70106709  0.12299287    -0.80700
O9          O  0.40394688  0.67408175  0.17950109    -0.83400
C10         C  0.39016417  0.75006580  0.13435480     0.97300
C11         C  0.41436693  0.70849970  0.08330958     1.04800
O12         O  0.41975886  0.69559518  0.13699194    -1.12400
O13         O  0.41570293  0.64026542  0.14135835    -0.74800
O14         O  0.38671980  0.65574235  0.11853058    -0.78300
O15         O  0.41360194  0.75070481  0.13104059    -0.79000
C16         C  0.39843439  0.63734012  0.12692557     0.96200
O17         O  0.37101244  0.68537769  0.15846332    -0.77000
O18         O  0.46366906  0.66341329  0.13705366    -0.82200
C19         C  0.45633372  0.71854124  0.17705997     0.98900
C20         C  0.47798017  0.67808596  0.12628465     1.04800
O21         O  0.45193692  0.73248436  0.16016692    -0.77800
C22         C  0.38093415  0.67930252  0.17725349     1.03100
Fe23       Fe  0.38288190  0.69726169  0.87054513     1.65800
Fe24       Fe  0.42859502  0.67217805  0.83802738     1.73200
Fe25       Fe  0.44039998  0.72541349  0.86841813     1.54400
O26         O  0.41432671  0.75368987  0.86350797    -0.81500
O27         O  0.46276901  0.66730214  0.85351554    -0.79900
O28         O  0.37840079  0.73537579  0.87215787    -0.84100
O29         O  0.39614481  0.69641486  0.90327337    -0.78900
O30         O  0.45300655  0.73222068  0.83571381    -0.80700
O31         O  0.41545849  0.64307161  0.85757867    -0.83400
C32         C  0.41403255  0.70795434  0.91293914     0.97300
C33         C  0.39116645  0.75469341  0.86789136     1.04800
O34         O  0.41742555  0.69837747  0.85895208    -1.12400
O35         O  0.39551914  0.67383827  0.81991310    -0.74800
O36         O  0.36792117  0.69792853  0.83827204    -0.78300
O37         O  0.43011770  0.72100129  0.90219995    -0.79000
C38         C  0.37475528  0.68543707  0.82103077     0.96200
O39         O  0.38001830  0.65873890  0.87091073    -0.77000
O40         O  0.44336516  0.69795841  0.81591692    -0.82200
C41         C  0.47641666  0.67988122  0.86686434     0.98900
C42         C  0.45246389  0.71985076  0.81730368     1.04800
O43         O  0.47019941  0.70129521  0.87432194    -0.77800
C44         C  0.39422821  0.64039914  0.86666995     1.03100
Fe45       Fe  0.70440811  0.61454755  0.12836378     1.65800
Fe46       Fe  0.67924957  0.56561417  0.15678256     1.73200
Fe47       Fe  0.73293936  0.55708664  0.12622192     1.54400
O48         O  0.73015474  0.57115624  0.09352969    -0.81500
O49         O  0.70496444  0.54992447  0.17830982    -0.79900
O50         O  0.70586695  0.60537126  0.09442424    -0.84100
O51         O  0.74254105  0.61918449  0.12957537    -0.78900
O52         O  0.70864792  0.52872515  0.11654555    -0.80700
O53         O  0.67967938  0.59653604  0.17746498    -0.83400
C54         C  0.76179871  0.60607219  0.13341450     0.97300
C55         C  0.71827045  0.58881333  0.08375520     1.04800
O56         O  0.70557252  0.57897068  0.13704117    -1.12400
O57         O  0.65037448  0.57999444  0.13754526    -0.74800
O58         O  0.66576449  0.61629951  0.12580922    -0.78300
O59         O  0.76103851  0.58236590  0.13433894    -0.79000
C60         C  0.64761113  0.60133079  0.12848817     0.96200
O61         O  0.70327801  0.62613334  0.16184002    -0.77000
O62         O  0.67562020  0.53270815  0.13912498    -0.82200
C63         C  0.72657381  0.54035245  0.17636667     0.98900
C64         C  0.68788518  0.52094073  0.12418574     1.04800
O65         O  0.73872831  0.54066829  0.15785713    -0.77800
C66         C  0.69122744  0.61725753  0.17852610     1.03100
Fe67       Fe  0.70419060  0.61708107  0.86927056     1.65800
Fe68       Fe  0.68199795  0.56976675  0.83602736     1.73200
Fe69       Fe  0.73347333  0.55951244  0.86941790     1.54400
O70         O  0.76137136  0.58615505  0.86541747    -0.81500
O71         O  0.67568397  0.53711825  0.85332337    -0.79900
O72         O  0.74199553  0.62297971  0.86703547    -0.84100
O73         O  0.70708439  0.60624767  0.90279120    -0.78900
O74         O  0.74284882  0.54651574  0.83745350    -0.80700
O75         O  0.65152747  0.58496593  0.85233859    -0.83400
C76         C  0.71681676  0.58769674  0.91303312     0.97300
C77         C  0.76159915  0.60989922  0.86493083     1.04800
O78         O  0.70654077  0.58209988  0.85829693    -1.12400
O79         O  0.68526525  0.60090150  0.81596008    -0.74800
O80         O  0.70139912  0.63173227  0.83692142    -0.78300
O81         O  0.72741544  0.56967791  0.90277622    -0.79000
C82         C  0.69313352  0.62310277  0.81834472     0.96200
O83         O  0.66559890  0.61695216  0.87256726    -0.77000
O84         O  0.70898451  0.55317556  0.81630229    -0.82200
C85         C  0.68775498  0.52359544  0.86714148     0.98900
C86         C  0.73127012  0.54548294  0.81870216     1.04800
O87         O  0.70929238  0.52958259  0.87453757    -0.77800
C88         C  0.64771550  0.60397554  0.86466689     1.03100
Fe89       Fe  0.62273542  0.29665268  0.12177818     1.65800
Fe90       Fe  0.57600384  0.32191235  0.15261224     1.73200
Fe91       Fe  0.56601535  0.26725710  0.12402309     1.54400
O92         O  0.57751143  0.26972227  0.09038299    -0.81500
O93         O  0.56203803  0.29690126  0.17549168    -0.79900
O94         O  0.61001296  0.29625634  0.08887598    -0.84100
O95         O  0.62787825  0.25851070  0.12122552    -0.78900
O96         O  0.53629335  0.29069560  0.11571849    -0.80700
O97         O  0.60893793  0.32225168  0.17123859    -0.83400
C98         C  0.61578351  0.23921377  0.12703491     0.97300
C99         C  0.59285767  0.28342209  0.07943263     1.04800
O100        O  0.58809399  0.29517264  0.13283571    -1.12400
O101        O  0.58814898  0.35005818  0.13176757    -0.74800
O102        O  0.62478693  0.33535263  0.12046767    -0.78300
O103        O  0.59258952  0.23999952  0.13143765    -0.79000
C104        C  0.60980743  0.35333446  0.12383381     0.96200
O105        O  0.63678493  0.29706634  0.15445643    -0.77000
O106        O  0.54181716  0.32484794  0.13681939    -0.82200
C107        C  0.55234861  0.27525117  0.17472182     0.98900
C108        C  0.52906176  0.31184925  0.12308435     1.04800
O109        O  0.55203133  0.26228840  0.15664381    -0.77800
C110        C  0.62950699  0.31024500  0.17113683     1.03100
Fe111      Fe  0.62546439  0.29513452  0.86507284     1.65800
Fe112      Fe  0.57736799  0.32007870  0.83506082     1.73200
Fe113      Fe  0.56777091  0.26734838  0.86545345     1.54400
O114        O  0.59425047  0.23880666  0.86308480    -0.81500
O115        O  0.55016828  0.32996675  0.85780892    -0.79900
O116        O  0.63106530  0.25777650  0.85967987    -0.84100
O117        O  0.61595949  0.28899414  0.89866269    -0.78900
O118        O  0.55676874  0.25836602  0.83282336    -0.80700
O119        O  0.59956496  0.34874075  0.84695487    -0.83400
C120        C  0.59643433  0.28162656  0.90902906     0.97300
C121        C  0.61779807  0.23823879  0.86037839     1.04800
O122        O  0.59035488  0.29412177  0.85533546    -1.12400
O123        O  0.60389974  0.31113816  0.81146111    -0.74800
O124        O  0.63763798  0.30111975  0.83194770    -0.78300
O125        O  0.57690913  0.27395469  0.89883299    -0.79000
C126        C  0.62690933  0.30543919  0.81298090     0.96200
O127        O  0.62573663  0.33287295  0.87227686    -0.77000
O128        O  0.55264347  0.29667621  0.81869652    -0.82200
C129        C  0.53427298  0.31578296  0.86723909     0.98900
C130        C  0.54863152  0.27335422  0.81790879     1.04800
O131        O  0.53782811  0.29223327  0.86920003    -0.77800
C132        C  0.61670693  0.35122472  0.86154021     1.03100
Fe133      Fe  0.30480387  0.37841050  0.12283132     1.65800
Fe134      Fe  0.32953202  0.42672474  0.15227745     1.73200
Fe135      Fe  0.27404432  0.43451926  0.12446320     1.54400
O136        O  0.27578494  0.42185060  0.09128971    -0.81500
O137        O  0.30458563  0.44071667  0.17533167    -0.79900
O138        O  0.30257398  0.38980899  0.08965468    -0.84100
O139        O  0.26674977  0.37226795  0.12364925    -0.78900
O140        O  0.29649893  0.46422637  0.11467629    -0.80700
O141        O  0.33112763  0.39450336  0.17153773    -0.83400
C142        C  0.24731298  0.38437393  0.12914710     0.97300
C143        C  0.28869193  0.40608925  0.08010788     1.04800
O144        O  0.30272479  0.41334193  0.13321016    -1.12400
O145        O  0.35787562  0.41439553  0.13149480    -0.74800
O146        O  0.34355621  0.37744517  0.12050863    -0.78300
O147        O  0.24773672  0.40770538  0.13299523    -0.79000
C148        C  0.36143544  0.39260489  0.12377561     0.96200
O149        O  0.30697096  0.36533012  0.15557528    -0.77000
O150        O  0.33106844  0.46036020  0.13548822    -0.82200
C151        C  0.28265652  0.44977014  0.17465856     0.98900
C152        C  0.31759128  0.47218985  0.12141676     1.04800
O153        O  0.26938885  0.44957681  0.15675310    -0.77800
C154        C  0.32020960  0.37334845  0.17191130     1.03100
Fe155      Fe  0.30549994  0.37478137  0.86788098     1.65800
Fe156      Fe  0.32960191  0.42043977  0.83503528     1.73200
Fe157      Fe  0.27784076  0.43259961  0.86533469     1.54400
O158        O  0.24963530  0.40558903  0.86623968    -0.81500
O159        O  0.34015735  0.44862029  0.85643179    -0.79900
O160        O  0.26835685  0.36863514  0.86159087    -0.84100
O161        O  0.29767398  0.38637996  0.90053230    -0.78900
O162        O  0.26783541  0.44037483  0.83218616    -0.80700
O163        O  0.35815076  0.39864988  0.84779631    -0.83400
C164        C  0.29176076  0.40699210  0.90990791     0.97300
C165        C  0.24892752  0.38192628  0.86399566     1.04800
O166        O  0.30418663  0.40909058  0.85622926    -1.12400
O167        O  0.31984505  0.39264493  0.81296514    -0.74800
O168        O  0.31328969  0.35990835  0.83596126    -0.78300
O169        O  0.28574349  0.42662450  0.89902276    -0.79000
C170        C  0.31618418  0.36944068  0.81633050     0.96200
O171        O  0.34302298  0.37618641  0.87613656    -0.77000
O172        O  0.30593960  0.44441496  0.81794918    -0.82200
C173        C  0.32615980  0.46579485  0.86416386     0.98900
C174        C  0.28256690  0.44828209  0.81698985     1.04800
O175        O  0.30250673  0.46314371  0.86585871    -0.77800
C176        C  0.36108902  0.38350197  0.86404132     1.03100
Fe177      Fe  0.69973700  0.37345655  0.37060348     1.65800
Fe178      Fe  0.67486787  0.42071459  0.33955143     1.73200
Fe179      Fe  0.72958548  0.43001873  0.36819511     1.54400
O180        O  0.72805774  0.41818690  0.40170491    -0.81500
O181        O  0.70005213  0.43428577  0.31652894    -0.79900
O182        O  0.70194537  0.38562983  0.40371870    -0.84100
O183        O  0.73786927  0.36791457  0.36971170    -0.78900
O184        O  0.70644858  0.45944986  0.37722780    -0.80700
O185        O  0.67375363  0.38796341  0.32093165    -0.83400
C186        C  0.75713340  0.38030861  0.36433405     0.97300
C187        C  0.71545402  0.40230398  0.41305773     1.04800
O188        O  0.70142915  0.40814822  0.35945521    -1.12400
O189        O  0.64638934  0.40863638  0.36018191    -0.74800
O190        O  0.66107152  0.37259978  0.37338212    -0.78300
O191        O  0.75639785  0.40357151  0.36025530    -0.79000
C192        C  0.64318543  0.38770653  0.36980036     0.96200
O193        O  0.69751565  0.35911954  0.33800826    -0.77000
O194        O  0.67271767  0.45501981  0.35542522    -0.82200
C195        C  0.72164348  0.44405841  0.31749219     0.98900
C196        C  0.68568357  0.46730939  0.36958918     1.04800
O197        O  0.73427871  0.44450126  0.33574378    -0.77800
C198        C  0.68466692  0.36681050  0.32123193     1.03100
Fe199      Fe  0.70913990  0.37810726  0.62528096     1.65800
Fe200      Fe  0.68493314  0.42543769  0.65641051     1.73200
Fe201      Fe  0.74058312  0.43389379  0.62904172     1.54400
O202        O  0.76722877  0.40607433  0.63384342    -0.81500
O203        O  0.68200950  0.45898628  0.63979089    -0.79900
O204        O  0.74686838  0.37133664  0.62500249    -0.84100
O205        O  0.71079587  0.39131723  0.59254021    -0.78900
O206        O  0.74688685  0.44524315  0.66247992    -0.80700
O207        O  0.65603213  0.41284337  0.63648239    -0.83400
C208        C  0.72362248  0.40876163  0.58349804     0.97300
C209        C  0.76689908  0.38293116  0.62922153     1.04800
O210        O  0.71164478  0.41260564  0.63689367    -1.12400
O211        O  0.68529241  0.39311549  0.67555664    -0.74800
O212        O  0.70771355  0.36377245  0.65777538    -0.78300
O213        O  0.73641711  0.42461915  0.59486959    -0.79000
C214        C  0.69634234  0.37202427  0.67517514     0.96200
O215        O  0.67058205  0.37705921  0.62312581    -0.77000
O216        O  0.70989597  0.44033841  0.67893076    -0.82200
C217        C  0.69697884  0.47241228  0.62851269     0.98900
C218        C  0.73257099  0.44723282  0.67960978     1.04800
O219        O  0.71883437  0.46534163  0.62311799    -0.77800
C220        C  0.65265662  0.39178740  0.62730268     1.03100
Fe221      Fe  0.61792868  0.69216920  0.37127636     1.65800
Fe222      Fe  0.56962096  0.66667504  0.34167328     1.73200
Fe223      Fe  0.56075231  0.72141658  0.37058283     1.54400
O224        O  0.57289877  0.71852384  0.40369677    -0.81500
O225        O  0.55273679  0.69169193  0.32012180    -0.79900
O226        O  0.60700842  0.69426041  0.40466914    -0.84100
O227        O  0.62327340  0.73026506  0.36992867    -0.78900
O228        O  0.53104260  0.69807878  0.37890180    -0.80700
O229        O  0.60083663  0.66812707  0.32108259    -0.83400
C230        C  0.61046642  0.74961550  0.36560183     0.97300
C231        C  0.58956113  0.70634570  0.41445451     1.04800
O232        O  0.58266750  0.69340545  0.36120037    -1.12400
O233        O  0.58469800  0.63777805  0.36042172    -0.74800
O234        O  0.61991644  0.65367264  0.37409722    -0.78300
O235        O  0.58693266  0.74882239  0.36323632    -0.79000
C236        C  0.60603451  0.63519845  0.36944709     0.96200
O237        O  0.63093145  0.68996652  0.33838544    -0.77000
O238        O  0.53689068  0.66252240  0.35974235    -0.82200
C239        C  0.54445611  0.71394681  0.32087347     0.98900
C240        C  0.52414937  0.67632169  0.37286033     1.04800
O241        O  0.54620705  0.72734294  0.33852664    -0.77800
C242        C  0.62217222  0.67865339  0.32115577     1.03100
Fe243      Fe  0.62724128  0.69867727  0.62466330     1.65800
Fe244      Fe  0.58538754  0.67044879  0.65893187     1.73200
Fe245      Fe  0.56845551  0.72300876  0.62986978     1.54400
O246        O  0.59254306  0.75273792  0.63595078    -0.81500
O247        O  0.55040444  0.66434666  0.64527790    -0.79900
O248        O  0.62851075  0.73709369  0.62349721    -0.84100
O249        O  0.61213624  0.69734115  0.59272536    -0.78900
O250        O  0.55520788  0.72664184  0.66281991    -0.80700
O251        O  0.59841987  0.64282186  0.63783135    -0.83400
C252        C  0.59387815  0.70932095  0.58419175     0.97300
C253        C  0.61496882  0.75540762  0.62940073     1.04800
O254        O  0.59361693  0.69750498  0.63795427    -1.12400
O255        O  0.61970616  0.67287120  0.67496373    -0.74800
O256        O  0.64420718  0.69968490  0.65614856    -0.78300
O257        O  0.57836152  0.72199659  0.59584480    -0.79000
C258        C  0.63966078  0.68562878  0.67300920     0.96200
O259        O  0.63226528  0.66037729  0.62330060    -0.77000
O260        O  0.57112333  0.69490389  0.68248331    -0.82200
C261        C  0.53633650  0.67505276  0.63090007     0.98900
C262        C  0.55816334  0.71480271  0.68131351     1.04800
O263        O  0.54133512  0.69644326  0.62268135    -0.77800
C264        C  0.61916016  0.64127729  0.62763696     1.03100
Fe265      Fe  0.29930875  0.61367311  0.37188602     1.65800
Fe266      Fe  0.32814297  0.56565712  0.34422308     1.73200
Fe267      Fe  0.27155722  0.55579261  0.36913148     1.54400
O268        O  0.27449943  0.56403375  0.40311626    -0.81500
O269        O  0.30535800  0.54555116  0.32247705    -0.79900
O270        O  0.28839358  0.60352760  0.40420136    -0.84100
O271        O  0.26289379  0.61938833  0.36175208    -0.78900
O272        O  0.29435234  0.52467430  0.37442089    -0.80700
O273        O  0.32657422  0.59499262  0.32185927    -0.83400
C274        C  0.24340422  0.60595264  0.36109447     0.97300
C275        C  0.28027122  0.58385336  0.41385303     1.04800
O276        O  0.29967557  0.57845726  0.36177712    -1.12400
O277        O  0.35497214  0.58397493  0.36320843    -0.74800
O278        O  0.33593466  0.61331711  0.38335255    -0.78300
O279        O  0.24387444  0.58260533  0.36488626    -0.79000
C280        C  0.35558624  0.60168469  0.37746660     0.96200
O281        O  0.31045765  0.62754763  0.34063593    -0.77000
O282        O  0.33315133  0.53497089  0.36462890    -0.82200
C283        C  0.28219476  0.54064356  0.32037069     0.98900
C284        C  0.31747791  0.51956080  0.37254341     1.04800
O285        O  0.26633201  0.54594824  0.33559963    -0.77800
C286        C  0.32064563  0.61793830  0.32325131     1.03100
Fe287      Fe  0.30609495  0.62026132  0.62398081     1.65800
Fe288      Fe  0.33247129  0.57663169  0.65824171     1.73200
Fe289      Fe  0.27805617  0.56327670  0.63039472     1.54400
O290        O  0.25036617  0.58949334  0.63653851    -0.81500
O291        O  0.33582361  0.54129051  0.64478685    -0.79900
O292        O  0.26792588  0.62481367  0.62472992    -0.84100
O293        O  0.30413523  0.60548765  0.59176756    -0.78900
O294        O  0.27383666  0.55150415  0.66358090    -0.80700
O295        O  0.36053900  0.58781698  0.63663671    -0.83400
C296        C  0.29077548  0.58783254  0.58380552     0.97300
C297        C  0.24914766  0.61250567  0.63146951     1.04800
O298        O  0.30552328  0.58660742  0.63752521    -1.12400
O299        O  0.33249646  0.61080447  0.67448200    -0.74800
O300        O  0.30760897  0.63713423  0.65547191    -0.78300
O301        O  0.27914122  0.57238285  0.59633528    -0.79000
C302        C  0.32069946  0.63135140  0.67265911     0.96200
O303        O  0.34466749  0.62201104  0.62095239    -0.77000
O304        O  0.30764905  0.56414897  0.68229305    -0.82200
C305        C  0.32342236  0.52760523  0.63129870     0.98900
C306        C  0.28630636  0.55385106  0.68180065     1.04800
O307        O  0.30218258  0.53391597  0.62351248    -0.77800
C308        C  0.36305563  0.60778824  0.62534690     1.03100
Fe309      Fe  0.38127154  0.29412909  0.36748944     1.65800
Fe310      Fe  0.42793937  0.31799671  0.33476967     1.73200
Fe311      Fe  0.43839856  0.26434616  0.36466873     1.54400
O312        O  0.43030313  0.26955792  0.39849263    -0.81500
O313        O  0.44794401  0.29342109  0.31517183    -0.79900
O314        O  0.39305070  0.28851433  0.40026823    -0.84100
O315        O  0.37467309  0.25664815  0.36290538    -0.78900
O316        O  0.46891013  0.28814316  0.36908292    -0.80700
O317        O  0.39793593  0.31225080  0.31355985    -0.83400
C318        C  0.38740494  0.23674998  0.36114525     0.97300
C319        C  0.41249985  0.27948019  0.40954652     1.04800
O320        O  0.41583390  0.29209098  0.35566801    -1.12400
O321        O  0.41032435  0.34743558  0.35068278    -0.74800
O322        O  0.38218280  0.33207040  0.37410577    -0.78300
O323        O  0.41115484  0.23676116  0.36130201    -0.79000
C324        C  0.39351186  0.35051604  0.36542766     0.96200
O325        O  0.36614536  0.30005721  0.33563600    -0.77000
O326        O  0.45890440  0.32534227  0.35431663    -0.82200
C327        C  0.45409754  0.27054570  0.31538096     0.98900
C328        C  0.47355502  0.31116518  0.36538674     1.04800
O329        O  0.44934930  0.25618918  0.33190428    -0.77800
C330        C  0.37524855  0.30598840  0.31651116     1.03100
Fe331      Fe  0.38942874  0.30144209  0.62255976     1.65800
Fe332      Fe  0.43862901  0.32938912  0.64870674     1.73200
Fe333      Fe  0.44705569  0.27346879  0.62312875     1.54400
O334        O  0.42018737  0.24565323  0.62773131    -0.81500
O335        O  0.46572904  0.33614455  0.62492081    -0.79900
O336        O  0.38398109  0.26524936  0.63278267    -0.84100
O337        O  0.39784666  0.29031538  0.58976439    -0.78900
O338        O  0.45802788  0.26771146  0.65621887    -0.80700
O339        O  0.41648985  0.35661031  0.63381792    -0.83400
C340        C  0.41721850  0.28232713  0.57949042     0.97300
C341        C  0.39704105  0.24550758  0.63257023     1.04800
O342        O  0.42488447  0.30142466  0.63132646    -1.12400
O343        O  0.41241994  0.32426523  0.67342321    -0.74800
O344        O  0.37791590  0.31273612  0.65467112    -0.78300
O345        O  0.43757147  0.27693998  0.58955064    -0.79000
C346        C  0.38910399  0.31991667  0.67262672     0.96200
O347        O  0.38923545  0.33782114  0.61115405    -0.77000
O348        O  0.46299514  0.30713082  0.66726731    -0.82200
C349        C  0.48166483  0.32062016  0.61748152     0.98900
C350        C  0.46655179  0.28382878  0.66995975     1.04800
O351        O  0.47770649  0.29706828  0.61756309    -0.77800
C352        C  0.39893756  0.35739481  0.61938034     1.03100
Fe353      Fe  0.88765971  0.19126878  0.62103967     1.65800
Fe354      Fe  0.93634330  0.16462396  0.64847851     1.73200
Fe355      Fe  0.94466565  0.21999225  0.62051677     1.54400
O356        O  0.93041106  0.21889630  0.58762661    -0.81500
O357        O  0.95150968  0.18901306  0.67143902    -0.79900
O358        O  0.89734260  0.19318156  0.58751440    -0.84100
O359        O  0.88269148  0.22937593  0.62241620    -0.78900
O360        O  0.97333871  0.19659667  0.60975661    -0.80700
O361        O  0.90464484  0.16307492  0.66850887    -0.83400
C362        C  0.89559676  0.24836118  0.62762361     0.97300
C363        C  0.91365928  0.20622700  0.57730383     1.04800
O364        O  0.92304880  0.19204543  0.63000496    -1.12400
O365        O  0.92283935  0.13727662  0.62736923    -0.74800
O366        O  0.88577652  0.15276723  0.61814647    -0.78300
O367        O  0.91911923  0.24724725  0.63020762    -0.79000
C368        C  0.90089497  0.13457915  0.61978203     0.96200
O369        O  0.87617286  0.18941632  0.65425693    -0.77000
O370        O  0.96952034  0.16243406  0.63107240    -0.82200
C371        C  0.96149005  0.21052809  0.67035169     0.98900
C372        C  0.98099508  0.17529357  0.61636752     1.04800
O373        O  0.96113503  0.22366950  0.65236346    -0.77800
C374        C  0.88411740  0.17502611  0.66978317     1.03100
Fe375      Fe  0.87734286  0.19544316  0.36503913     1.65800
Fe376      Fe  0.92289806  0.16670220  0.33420967     1.73200
Fe377      Fe  0.93599826  0.22110277  0.36213291     1.54400
O378        O  0.91016101  0.25000549  0.35902140    -0.81500
O379        O  0.95367347  0.15887660  0.35406742    -0.79900
O380        O  0.87274141  0.23217027  0.35610368    -0.84100
O381        O  0.88847414  0.20491181  0.39738486    -0.78900
O382        O  0.94573028  0.22779595  0.32891652    -0.80700
O383        O  0.90303695  0.13942508  0.35143849    -0.83400
C384        C  0.90857915  0.21172984  0.40703288     0.97300
C385        C  0.88677569  0.25120973  0.35544679     1.04800
O386        O  0.91203806  0.19438872  0.35383063    -1.12400
O387        O  0.89324858  0.17159840  0.31256967    -0.74800
O388        O  0.86194090  0.18606041  0.33394705    -0.78300
O389        O  0.92838100  0.21697579  0.39614895    -0.79000
C390        C  0.87055679  0.17776371  0.31538997     0.96200
O391        O  0.87715332  0.15855869  0.37525521    -0.77000
O392        O  0.94367677  0.18989288  0.31331546    -0.82200
C393        C  0.96959389  0.17308222  0.36347564     0.98900
C394        C  0.94919907  0.21300800  0.31241766     1.04800
O395        O  0.96583608  0.19641856  0.36614362    -0.77800
C396        C  0.88602811  0.13888412  0.36640761     1.03100
Fe397      Fe  0.12750075  0.80363096  0.61893308     1.65800
Fe398      Fe  0.07947477  0.83026162  0.64787122     1.73200
Fe399      Fe  0.07130127  0.77318970  0.62284967     1.54400
O400        O  0.08281671  0.77290651  0.58933427    -0.81500
O401        O  0.06560111  0.80663447  0.67236183    -0.79900
O402        O  0.11589727  0.79833830  0.58600024    -0.84100
O403        O  0.13402195  0.76588320  0.62303128    -0.78900
O404        O  0.04106842  0.79506217  0.61283041    -0.80700
O405        O  0.11187521  0.83296579  0.66690407    -0.83400
C406        C  0.12193994  0.74710543  0.63014575     0.97300
C407        C  0.09905122  0.78437572  0.57747715     1.04800
O408        O  0.09264835  0.80234998  0.62984098    -1.12400
O409        O  0.09183609  0.85726579  0.62568538    -0.74800
O410        O  0.12795699  0.84203519  0.61365386    -0.78300
O411        O  0.09835844  0.74737925  0.63232504    -0.79000
C412        C  0.11308023  0.86024945  0.61666790     0.96200
O413        O  0.14121797  0.80870293  0.65122577    -0.77000
O414        O  0.04535803  0.83111815  0.63139624    -0.82200
C415        C  0.05699777  0.78448480  0.67282826     0.98900
C416        C  0.03300449  0.81648715  0.61868646     1.04800
O417        O  0.05737524  0.77033320  0.65554540    -0.77800
C418        C  0.13318724  0.82240576  0.66718617     1.03100
Fe419      Fe  0.11715390  0.79117921  0.36447632     1.65800
Fe420      Fe  0.07033228  0.81413410  0.33154947     1.73200
Fe421      Fe  0.05970680  0.76249316  0.36386830     1.54400
O422        O  0.08663072  0.73433873  0.36301190    -0.81500
O423        O  0.04067122  0.82380108  0.35193285    -0.79900
O424        O  0.12331557  0.75370760  0.36023989    -0.84100
O425        O  0.10639655  0.78606002  0.39752199    -0.78900
O426        O  0.04939214  0.75209278  0.33132740    -0.80700
O427        O  0.09038551  0.84380929  0.34464753    -0.83400
C428        C  0.08679565  0.77877289  0.40767330     0.97300
C429        C  0.11027235  0.73399318  0.36106012     1.04800
O430        O  0.08246280  0.78921725  0.35337442    -1.12400
O431        O  0.09912297  0.80592942  0.30971945    -0.74800
O432        O  0.13137230  0.79655337  0.33237471    -0.78300
O433        O  0.06769728  0.77018070  0.39743535    -0.79000
C434        C  0.12215852  0.80109640  0.31296037     0.96200
O435        O  0.11658471  0.82913852  0.37045399    -0.77000
O436        O  0.04822594  0.78914724  0.31415901    -0.82200
C437        C  0.02513364  0.80996064  0.36227172     0.98900
C438        C  0.04319372  0.76601690  0.31485785     1.04800
O439        O  0.02933604  0.78685902  0.36614046    -0.77800
C440        C  0.10716740  0.84715781  0.35946518     1.03100
Fe441      Fe  0.80455482  0.87616019  0.61981807     1.65800
Fe442      Fe  0.83090849  0.92368520  0.64883187     1.73200
Fe443      Fe  0.77496292  0.93273179  0.62208414     1.54400
O444        O  0.77551445  0.91987095  0.58872127    -0.81500
O445        O  0.80672613  0.93734056  0.67286530    -0.79900
O446        O  0.80254884  0.88786254  0.58676053    -0.84100
O447        O  0.76625229  0.87100788  0.62064926    -0.78900
O448        O  0.79759241  0.96196629  0.61197412    -0.80700
O449        O  0.83309263  0.89086166  0.66734811    -0.83400
C450        C  0.74731040  0.88345020  0.62695198     0.97300
C451        C  0.78833716  0.90401697  0.57745921     1.04800
O452        O  0.80338049  0.91103151  0.63027519    -1.12400
O453        O  0.85812702  0.91153864  0.62668676    -0.74800
O454        O  0.84344692  0.87422042  0.61747344    -0.78300
O455        O  0.74846839  0.90660722  0.63130874    -0.79000
C456        C  0.86154345  0.88941964  0.61966643     0.96200
O457        O  0.80640363  0.86306386  0.65251679    -0.77000
O458        O  0.83214504  0.95783314  0.63283831    -0.82200
C459        C  0.78497635  0.94689362  0.67244778     0.98900
C460        C  0.81860706  0.96982810  0.61893993     1.04800
O461        O  0.77165467  0.94777388  0.65455379    -0.77800
C462        C  0.82121602  0.87025840  0.66801174     1.03100
Fe463      Fe  0.79640352  0.87320908  0.36391603     1.65800
Fe464      Fe  0.82069971  0.91925236  0.33052581     1.73200
Fe465      Fe  0.76933443  0.93187145  0.36284762     1.54400
O466        O  0.74031900  0.90609617  0.36155016    -0.81500
O467        O  0.82967141  0.95060178  0.34879521    -0.79900
O468        O  0.75835519  0.86856572  0.36242238    -0.84100
O469        O  0.79410122  0.88513749  0.39701176    -0.78900
O470        O  0.75951025  0.94285456  0.33023102    -0.80700
O471        O  0.85039770  0.90112874  0.34558927    -0.83400
C472        C  0.78610750  0.90468397  0.40694153     0.97300
C473        C  0.73916432  0.88241520  0.36211721     1.04800
O474        O  0.79543976  0.90805289  0.35246683    -1.12400
O475        O  0.81418800  0.88894676  0.30999147    -0.74800
O476        O  0.79910220  0.85810664  0.33169078    -0.78300
O477        O  0.77649693  0.92322561  0.39649421    -0.79000
C478        C  0.80675603  0.86658609  0.31280466     0.96200
O479        O  0.83473541  0.87131146  0.36750228    -0.77000
O480        O  0.79538884  0.93929618  0.31160250    -0.82200
C481        C  0.81656212  0.96627083  0.35965559     0.98900
C482        C  0.77285309  0.94656516  0.31278829     1.04800
O483        O  0.79413831  0.96183814  0.36560301    -0.77800
C484        C  0.85307203  0.88236254  0.35843424     1.03100
Fe485      Fe  0.20835770  0.11997912  0.62254153     1.65800
Fe486      Fe  0.18395518  0.07242948  0.65379148     1.73200
Fe487      Fe  0.23931812  0.06364414  0.62555433     1.54400
O488        O  0.23547048  0.07314420  0.59141687    -0.81500
O489        O  0.20919815  0.05764338  0.67636787    -0.79900
O490        O  0.21185749  0.10761208  0.58982468    -0.84100
O491        O  0.24609067  0.12686732  0.62471809    -0.78900
O492        O  0.21706414  0.03268655  0.61897771    -0.80700
O493        O  0.18369275  0.10452602  0.67305818    -0.83400
C494        C  0.26600344  0.11470869  0.62827919     0.97300
C495        C  0.22342275  0.08974966  0.58027863     1.04800
O496        O  0.21063308  0.08531367  0.63402465    -1.12400
O497        O  0.15499046  0.08548689  0.63410821    -0.74800
O498        O  0.17001961  0.11981618  0.61798422    -0.78300
O499        O  0.26619802  0.09114898  0.63083607    -0.79000
C500        C  0.15208424  0.10525000  0.62260389     0.96200
O501        O  0.20449203  0.13467429  0.65471060    -0.77000
O502        O  0.18089174  0.03899123  0.63679476    -0.82200
C503        C  0.23186190  0.05062986  0.67631378     0.98900
C504        C  0.19516314  0.02588493  0.62447129     1.04800
O505        O  0.24561532  0.05168285  0.65874883    -0.77800
C506        C  0.19301745  0.12634333  0.67195436     1.03100
Fe507      Fe  0.19637013  0.11075115  0.36660581     1.65800
Fe508      Fe  0.17563079  0.06167700  0.33569450     1.73200
Fe509      Fe  0.22833775  0.05488753  0.36630818     1.54400
O510        O  0.25449558  0.08369890  0.36604577    -0.81500
O511        O  0.16766060  0.03337511  0.35770375    -0.79900
O512        O  0.23333391  0.11922530  0.36113178    -0.84100
O513        O  0.20389026  0.10073088  0.40012775    -0.78900
O514        O  0.23891182  0.04665544  0.33343869    -0.80700
O515        O  0.14528375  0.08132520  0.34804464    -0.83400
C516        C  0.21241631  0.08130176  0.41012359     0.97300
C517        C  0.25364370  0.10727396  0.36345389     1.04800
O518        O  0.20017518  0.07597788  0.35639826    -1.12400
O519        O  0.18248882  0.08920503  0.31278333    -0.74800
O520        O  0.18842255  0.12354313  0.33361161    -0.78300
O521        O  0.22037931  0.06201515  0.39975453    -0.79000
C522        C  0.18461264  0.11272409  0.31456054     0.96200
O523        O  0.15871528  0.10790041  0.37395512    -0.77000
O524        O  0.20133395  0.03966345  0.31878674    -0.82200
C525        C  0.18284441  0.01782463  0.36626743     0.98900
C526        C  0.22499256  0.03831966  0.31777831     1.04800
O527        O  0.20617306  0.02249489  0.36817844    -0.77800
C528        C  0.14109349  0.09791442  0.36284384     1.03100
Fe529      Fe  0.80289281  0.11512305  0.11827071     1.65800
Fe530      Fe  0.83029146  0.07148516  0.15199113     1.73200
Fe531      Fe  0.77615502  0.05708993  0.12376146     1.54400
O532        O  0.74739829  0.08297236  0.12816827    -0.81500
O533        O  0.83569452  0.03699541  0.13731270    -0.79900
O534        O  0.76483025  0.11916480  0.11870286    -0.84100
O535        O  0.80118721  0.10089017  0.08606282    -0.78900
O536        O  0.77068566  0.04639441  0.15717727    -0.80700
O537        O  0.85864406  0.08511032  0.13173226    -0.83400
C538        C  0.78958123  0.08230509  0.07764580     0.97300
C539        C  0.74591029  0.10610449  0.12352381     1.04800
O540        O  0.80310115  0.08109625  0.13126416    -1.12400
O541        O  0.82795960  0.10479841  0.16943491    -0.74800
O542        O  0.80402107  0.13155980  0.14987702    -0.78300
O543        O  0.77866888  0.06565115  0.08951853    -0.79000
C544        C  0.81604260  0.12527024  0.16754277     0.96200
O545        O  0.84119785  0.11788405  0.11522838    -0.77000
O546        O  0.80571229  0.05661952  0.17517667    -0.82200
C547        C  0.82264475  0.02181027  0.12579551     0.98900
C548        C  0.78381877  0.04753679  0.17512612     1.04800
O549        O  0.80082331  0.02722515  0.11862023    -0.77800
C550        C  0.86033139  0.10518988  0.12042030     1.03100
Fe551      Fe  0.80575276  0.11714019  0.86757535     1.65800
Fe552      Fe  0.83584589  0.06990328  0.83976162     1.73200
Fe553      Fe  0.77813120  0.05922229  0.86262409     1.54400
O554        O  0.77856381  0.06773948  0.89669609    -0.81500
O555        O  0.81424901  0.05043024  0.81676364    -0.79900
O556        O  0.79562663  0.10590687  0.89963102    -0.84100
O557        O  0.76922345  0.12277201  0.85828785    -0.78900
O558        O  0.80107985  0.02876359  0.86977007    -0.80700
O559        O  0.83488623  0.10006837  0.81811582    -0.83400
C560        C  0.75007310  0.10940293  0.85495011     0.97300
C561        C  0.78572866  0.08649583  0.90824799     1.04800
O562        O  0.80657052  0.08215693  0.85667738    -1.12400
O563        O  0.86204539  0.08775775  0.85955365    -0.74800
O564        O  0.84243760  0.11781191  0.87837041    -0.78300
O565        O  0.75054802  0.08573358  0.85642387    -0.79000
C566        C  0.86222262  0.10628047  0.87288517     0.96200
O567        O  0.81595243  0.13151832  0.83645482    -0.77000
O568        O  0.84001253  0.03867050  0.85988142    -0.82200
C569        C  0.79143074  0.04481676  0.81387179     0.98900
C570        C  0.82434260  0.02392112  0.86889192     1.04800
O571        O  0.77504174  0.04852890  0.82905204    -0.77800
C572        C  0.82716241  0.12251705  0.81935182     1.03100
Fe573      Fe  0.88356769  0.79149060  0.12061773     1.65800
Fe574      Fe  0.93158652  0.81917720  0.14876193     1.73200
Fe575      Fe  0.94206652  0.76505159  0.12027109     1.54400
O576        O  0.91611358  0.73631667  0.12356230    -0.81500
O577        O  0.95930521  0.82773107  0.12606676    -0.79900
O578        O  0.87890420  0.75428758  0.12854878    -0.84100
O579        O  0.89245383  0.78255427  0.08754104    -0.78900
O580        O  0.95350520  0.75768033  0.15295328    -0.80700
O581        O  0.90960615  0.84695915  0.13431117    -0.83400
C582        C  0.91195362  0.77529789  0.07710860     0.97300
C583        C  0.89275659  0.73510310  0.12717265     1.04800
O584        O  0.91894570  0.79183487  0.12979932    -1.12400
O585        O  0.90476047  0.81247131  0.17270617    -0.74800
O586        O  0.87122808  0.80045288  0.15307930    -0.78300
O587        O  0.93240415  0.76979646  0.08689478    -0.79000
C588        C  0.88164981  0.80703452  0.17155764     0.96200
O589        O  0.88284468  0.82866713  0.11089201    -0.77000
O590        O  0.95566261  0.79628032  0.16694124    -0.82200
C591        C  0.97516909  0.81342418  0.11676467     0.98900
C592        C  0.96069283  0.77306897  0.16792371     1.04800
O593        O  0.97184055  0.78983634  0.11535987    -0.77800
C594        C  0.89208841  0.84810710  0.11984334     1.03100
Fe595      Fe  0.88409360  0.79648028  0.86502753     1.65800
Fe596      Fe  0.93300278  0.82388436  0.83777752     1.73200
Fe597      Fe  0.94158011  0.76724777  0.86384016     1.54400
O598        O  0.92860590  0.76710785  0.89680606    -0.81500
O599        O  0.95032736  0.80063854  0.81510354    -0.79900
O600        O  0.89350220  0.78993733  0.89825310    -0.84100
O601        O  0.87879733  0.75892348  0.85920538    -0.78900
O602        O  0.97071203  0.79019497  0.87447061    -0.80700
O603        O  0.90256654  0.82446859  0.81646031    -0.83400
C604        C  0.89191987  0.73993410  0.85433878     0.97300
C605        C  0.91063725  0.77710543  0.90762691     1.04800
O606        O  0.91959699  0.79584301  0.85558380    -1.12400
O607        O  0.91762474  0.85119803  0.85780725    -0.74800
O608        O  0.88306411  0.83456256  0.87211016    -0.78300
O609        O  0.91564441  0.74037532  0.85425520    -0.79000
C610        C  0.89727116  0.85315067  0.86854993     0.96200
O611        O  0.87154907  0.80278979  0.83249326    -0.77000
O612        O  0.96488194  0.82671338  0.85694524    -0.82200
C613        C  0.95922553  0.77864857  0.81500192     0.98900
C614        C  0.97722371  0.81254268  0.87004610     1.04800
O615        O  0.95734241  0.76400795  0.83185060    -0.77800
C616        C  0.88073378  0.81517947  0.81619191     1.03100
Fe617      Fe  0.20061666  0.87537926  0.12240739     1.65800
Fe618      Fe  0.17628365  0.92384933  0.15250511     1.73200
Fe619      Fe  0.23213417  0.93132603  0.12629042     1.54400
O620        O  0.25839114  0.90284251  0.12936661    -0.81500
O621        O  0.17104032  0.95397616  0.13158384    -0.79900
O622        O  0.23702597  0.86722182  0.13017309    -0.84100
O623        O  0.21009642  0.88616430  0.08988530    -0.78900
O624        O  0.23910448  0.93997081  0.15995653    -0.80700
O625        O  0.14729113  0.90574616  0.13630070    -0.83400
C626        C  0.21937551  0.90570788  0.08086934     0.97300
C627        C  0.25734124  0.87923482  0.13136643     1.04800
O628        O  0.20299283  0.91009035  0.13355197    -1.12400
O629        O  0.17986489  0.89481871  0.17467711    -0.74800
O630        O  0.19104179  0.86161683  0.15410843    -0.78300
O631        O  0.22771223  0.92420517  0.09216735    -0.79000
C632        C  0.18445524  0.87159529  0.17273585     0.96200
O633        O  0.16342508  0.87742581  0.11305071    -0.77000
O634        O  0.20036257  0.94382844  0.17295576    -0.82200
C635        C  0.18725908  0.96901048  0.12391116     0.98900
C636        C  0.22379846  0.94597565  0.17543883     1.04800
O637        O  0.21034762  0.96344051  0.12228863    -0.77800
C638        C  0.14486932  0.88819053  0.12208433     1.03100
Fe639      Fe  0.20260674  0.87734469  0.86838519     1.65800
Fe640      Fe  0.17538350  0.92478095  0.83875728     1.73200
Fe641      Fe  0.23142647  0.93468717  0.86547229     1.54400
O642        O  0.23090261  0.92304776  0.89905167    -0.81500
O643        O  0.19885054  0.94207753  0.81616788    -0.79900
O644        O  0.20716846  0.88873806  0.90142443    -0.84100
O645        O  0.24052988  0.87227176  0.86498829    -0.78900
O646        O  0.20796926  0.96386906  0.87466219    -0.80700
O647        O  0.17613136  0.89356314  0.81839043    -0.83400
C648        C  0.25965302  0.88511018  0.86005038     0.97300
C649        C  0.22000288  0.90609189  0.91052311     1.04800
O650        O  0.20316241  0.91230949  0.85751830    -1.12400
O651        O  0.14758798  0.90959627  0.85834205    -0.74800
O652        O  0.16435240  0.87570775  0.87381075    -0.78300
O653        O  0.25867652  0.90861422  0.85730045    -0.79000
C654        C  0.14565027  0.88946844  0.86944886     0.96200
O655        O  0.19811100  0.86349125  0.83590768    -0.77000
O656        O  0.17155024  0.95697118  0.85723494    -0.82200
C657        C  0.22091919  0.95060300  0.81580347     0.98900
C658        C  0.18550036  0.96980939  0.87011250     1.04800
O659        O  0.23532356  0.94915015  0.83291337    -0.77800
C660        C  0.18602197  0.87194703  0.81899628     1.03100
Fe661      Fe  0.12450989  0.19736274  0.12182200     1.65800
Fe662      Fe  0.07981476  0.17130001  0.15529414     1.73200
Fe663      Fe  0.06585396  0.22414560  0.12527445     1.54400
O664        O  0.09168402  0.25320098  0.12737140    -0.81500
O665        O  0.04814846  0.16269067  0.13728655    -0.79900
O666        O  0.12917036  0.23513208  0.12540540    -0.84100
O667        O  0.11177947  0.20207101  0.08918826    -0.78900
O668        O  0.05537908  0.23213029  0.15834826    -0.80700
O669        O  0.09773996  0.14258245  0.13871429    -0.83400
C670        C  0.09199200  0.21059377  0.08002103     0.97300
C671        C  0.11537961  0.25431800  0.12661526     1.04800
O672        O  0.09006464  0.19766684  0.13405337    -1.12400
O673        O  0.11024290  0.17792219  0.17561725    -0.74800
O674        O  0.14068040  0.19299084  0.15358253    -0.78300
O675        O  0.07360158  0.21905252  0.09130626    -0.79000
C676        C  0.13228901  0.18609004  0.17272211     0.96200
O677        O  0.12559578  0.15935024  0.11578600    -0.77000
O678        O  0.06011869  0.19542296  0.17537548    -0.82200
C679        C  0.03221740  0.17625314  0.12713223     0.98900
C680        C  0.05259260  0.21789544  0.17536425     1.04800
O681        O  0.03619467  0.19903656  0.12197942    -0.77800
C682        C  0.11486741  0.14039566  0.12408259     1.03100
Fe683      Fe  0.12561567  0.19485951  0.86869620     1.65800
Fe684      Fe  0.08058116  0.16921880  0.83610184     1.73200
Fe685      Fe  0.06877871  0.22331183  0.86441525     1.54400
O686        O  0.07997045  0.22266178  0.89821713    -0.81500
O687        O  0.07011944  0.19447079  0.81182478    -0.79900
O688        O  0.11245214  0.19637640  0.90121063    -0.84100
O689        O  0.13033700  0.23320460  0.86797830    -0.78900
O690        O  0.03997479  0.19945394  0.87304254    -0.80700
O691        O  0.11491789  0.16655995  0.82022255    -0.83400
C692        C  0.11775937  0.25192218  0.86124581     0.97300
C693        C  0.09571672  0.21021164  0.90993561     1.04800
O694        O  0.09151965  0.19585191  0.85649231    -1.12400
O695        O  0.09003434  0.14170021  0.85874377    -0.74800
O696        O  0.12657965  0.15605978  0.87121372    -0.78300
O697        O  0.09469754  0.25054359  0.85647628    -0.79000
C698        C  0.11089483  0.13845351  0.86850537     0.96200
O699        O  0.14076932  0.19376085  0.83675198    -0.77000
O700        O  0.04458550  0.16818228  0.84848626    -0.82200
C701        C  0.05799026  0.21486755  0.81295303     0.98900
C702        C  0.03182520  0.18015531  0.86296315     1.04800
O703        O  0.05495015  0.22663256  0.83150718    -0.77800
C704        C  0.13476958  0.17956875  0.82043985     1.03100
C705        C  0.08962410  0.23351166  0.97053621    -0.22300
C706        C  0.09183111  0.21096052  0.98242475     0.09600
C707        C  0.09534356  0.18833536  0.97059780     0.10000
C708        C  0.09643347  0.18877038  0.94691122    -0.17300
C709        C  0.09437207  0.21135665  0.93484822    -0.27700
C710        C  0.09140268  0.23413505  0.94687700     0.18400
C711        C  0.09177665  0.21161682  0.00736621     0.12300
C712        C  0.09820861  0.16384545  0.98301059    -0.12000
H713        H  0.09883397  0.17135385  0.93773834     0.12600
C714        C  0.09152787  0.25950480  0.93568936    -0.22900
H715        H  0.08742873  0.25086397  0.97987566     0.08300
C716        C  0.11385308  0.21664772  0.01958396     0.04600
C717        C  0.11319853  0.21632051  0.04326445    -0.20100
C718        C  0.09093394  0.21120621  0.05501075    -0.12400
C719        C  0.06872130  0.20631397  0.04263596     0.13300
C720        C  0.06947934  0.20659987  0.01888430    -0.22800
C721        C  0.13812413  0.22208747  0.00760566    -0.05900
H722        H  0.13020077  0.22017202  0.05267325     0.14800
C723        C  0.04448402  0.19974604  0.05419558    -0.16100
H724        H  0.05269773  0.20262908  0.00919391     0.09200
H725        H  0.10596505  0.27147944  0.94380458     0.07000
H726        H  0.07296415  0.26854306  0.93777886     0.08200
H727        H  0.09619141  0.25875116  0.91749270     0.07300
H728        H  0.08115303  0.16005123  0.99314096     0.02100
H729        H  0.11464628  0.16474653  0.99450563     0.02600
H730        H  0.10102768  0.14794443  0.97115625     0.06100
H731        H  0.15365895  0.22542841  0.01975334     0.05100
H732        H  0.13602640  0.23905962  0.99691505    -0.00700
H733        H  0.14333486  0.20596761  0.99671481     0.00800
H734        H  0.03767438  0.21588078  0.06429203     0.04500
H735        H  0.04739109  0.18331000  0.06540742     0.06400
H736        H  0.02958811  0.19490561  0.04180689     0.07300
C737        C  0.13955818  0.01928819  0.88888537    -0.22300
C738        C  0.15275028  0.04089992  0.88282536     0.09600
C739        C  0.17803376  0.03909559  0.87620510     0.10000
C740        C  0.18917385  0.01542202  0.87445690    -0.17300
C741        C  0.17535999  0.99361356  0.87867158    -0.27700
C742        C  0.15060594  0.99558014  0.88700388     0.18400
C743        C  0.13907392  0.06481503  0.88077614     0.12300
C744        C  0.19273483  0.06202357  0.86963188    -0.12000
H745        H  0.20810592  0.01386338  0.86804180     0.12600
C746        C  0.13529901  0.97311189  0.89380789    -0.22900
H747        H  0.12022232  0.02086564  0.89423397     0.08300
C748        C  0.12503607  0.07018232  0.86112000     0.04600
C749        C  0.11457100  0.09401656  0.85848020    -0.20100
C750        C  0.11820560  0.11275568  0.87482389    -0.12400
C751        C  0.13119670  0.10693789  0.89508836     0.13300
C752        C  0.14160697  0.08297583  0.89773948    -0.22800
C753        C  0.12211014  0.05114826  0.84243858    -0.05900
H754        H  0.10470786  0.09847683  0.84292688     0.14800
C755        C  0.13416461  0.12528087  0.91429681    -0.16100
H756        H  0.15218779  0.07857463  0.91291390     0.09200
H757        H  0.11878473  0.97140874  0.88247819     0.07000
H758        H  0.12871287  0.97551958  0.91150433     0.08200
H759        H  0.14607332  0.95538143  0.89321304     0.07300
H760        H  0.19380261  0.07508824  0.88421915     0.02100
H761        H  0.18346172  0.07158983  0.85517439     0.02600
H762        H  0.21212977  0.05722873  0.86447491     0.06100
H763        H  0.11098329  0.05863376  0.82804039     0.05100
H764        H  0.11239153  0.03430084  0.84900845    -0.00700
H765        H  0.14079827  0.04566469  0.83590805     0.00800
H766        H  0.12664487  0.11690347  0.93009660     0.04500
H767        H  0.12392287  0.14302804  0.91144712     0.06400
H768        H  0.15429999  0.12955899  0.91681608     0.07300
C769        C  0.17677722  0.03905154  0.12576548    -0.22300
C770        C  0.15597097  0.04145071  0.11150814     0.09600
C771        C  0.14721981  0.02050016  0.09934680     0.10000
C772        C  0.15874118  0.99713448  0.10276142    -0.17300
C773        C  0.17884228  0.99444298  0.11795834    -0.27700
C774        C  0.18818981  0.01580160  0.12943013     0.18400
C775        C  0.14236891  0.06557101  0.11180040     0.12300
C776        C  0.12553059  0.02277778  0.08316969    -0.12000
H777        H  0.15158458  0.98074622  0.09406982     0.12600
C778        C  0.20885329  0.01479869  0.14689424    -0.22900
H779        H  0.18328342  0.05526860  0.13513693     0.08300
C780        C  0.12368007  0.07011544  0.12807170     0.04600
C781        C  0.11414846  0.09437912  0.13060136    -0.20100
C782        C  0.12326903  0.11460852  0.11768477    -0.12400
C783        C  0.14125941  0.10958512  0.10049106     0.13300
C784        C  0.15048158  0.08507403  0.09782538    -0.22800
C785        C  0.11458543  0.04956240  0.14352430    -0.05900
H786        H  0.10027197  0.09764312  0.14361904     0.14800
C787        C  0.15135184  0.12968236  0.08507863    -0.16100
H788        H  0.16490716  0.08125625  0.08541286     0.09200
H789        H  0.20174933  0.02206414  0.16329823     0.07000
H790        H  0.22465542  0.02675617  0.14129141     0.08200
H791        H  0.21619703  0.99579089  0.15011934     0.07300
H792        H  0.13017481  0.03650481  0.06969946     0.02100
H793        H  0.10859921  0.02926190  0.09229863     0.02600
H794        H  0.12111957  0.00459144  0.07496470     0.06100
H795        H  0.10002803  0.05635615  0.15544111     0.05100
H796        H  0.13042899  0.04213826  0.15369503    -0.00700
H797        H  0.10638481  0.03413401  0.13336999     0.00800
H798        H  0.16411412  0.12187107  0.07203201     0.04500
H799        H  0.16225785  0.14353773  0.09501658     0.06400
H800        H  0.13568835  0.13910294  0.07609544     0.07300
C801        C  0.21201815  0.92656194  0.01976711    -0.22300
C802        C  0.22341356  0.90657245  0.00841643     0.09600
C803        C  0.23387513  0.88661784  0.02086667     0.10000
C804        C  0.23230788  0.88691023  0.04456900    -0.17300
C805        C  0.22063343  0.90677709  0.05600018    -0.27700
C806        C  0.21020870  0.92684270  0.04344005     0.18400
C807        C  0.22267816  0.90619898  0.98341701     0.12300
C808        C  0.24641196  0.86497130  0.00909904    -0.12000
H809        H  0.24025966  0.87158776  0.05425652     0.12600
C810        C  0.19596681  0.94817393  0.05416275    -0.22900
H811        H  0.20375244  0.94166759  0.01000902     0.08300
C812        C  0.20163359  0.89689014  0.97177887     0.04600
C813        C  0.20142418  0.89715450  0.94807065    -0.20100
C814        C  0.22172937  0.90663735  0.93562736    -0.12400
C815        C  0.24299616  0.91581157  0.94745285     0.13300
C816        C  0.24312386  0.91545707  0.97125298    -0.22800
C817        C  0.17941837  0.88661523  0.98441360    -0.05900
H818        H  0.18511710  0.89011869  0.93920852     0.14800
C819        C  0.26590972  0.92526879  0.93530806    -0.16100
H820        H  0.25923305  0.92242141  0.98047854     0.09200
H821        H  0.17690694  0.94916485  0.04669274     0.07000
H822        H  0.20579590  0.96607587  0.05073244     0.08200
H823        H  0.19361054  0.94621096  0.07269376     0.07300
H824        H  0.26247937  0.87189444  0.99899563     0.02100
H825        H  0.23288017  0.85554083  0.99765396     0.02600
H826        H  0.25353712  0.85089268  0.02137072     0.06100
H827        H  0.16458901  0.87990398  0.97269491     0.05100
H828        H  0.17123000  0.90142088  0.99532305    -0.00700
H829        H  0.18536837  0.87062197  0.99516577     0.00800
H830        H  0.26132591  0.94247581  0.92562175     0.04500
H831        H  0.27307127  0.91060633  0.92366512     0.06400
H832        H  0.28118495  0.93009714  0.94731587     0.07300
C833        C  0.09081725  0.85642414  0.89807310    -0.22300
C834        C  0.07275227  0.85817558  0.88089341     0.09600
C835        C  0.07803609  0.87204428  0.86114932     0.10000
C836        C  0.10158704  0.88315516  0.85868023    -0.17300
C837        C  0.12019343  0.88064769  0.87538391    -0.27700
C838        C  0.11443281  0.86774864  0.89571058     0.18400
C839        C  0.04871392  0.84458718  0.88311948     0.12300
C840        C  0.05912357  0.87435873  0.84227854    -0.12000
H841        H  0.10587651  0.89291209  0.84305894     0.12600
C842        C  0.13230180  0.86609033  0.91542218    -0.22900
H843        H  0.08649452  0.84606611  0.91336433     0.08300
C844        C  0.04665436  0.81917852  0.87681342     0.04600
C845        C  0.02285405  0.80822897  0.87506016    -0.20100
C846        C  0.00112047  0.82233498  0.87896840    -0.12400
C847        C  0.00334885  0.84721453  0.88704340     0.13300
C848        C  0.02715791  0.85805291  0.88893127    -0.22800
C849        C  0.06946514  0.80412738  0.87056761    -0.05900
H850        H  0.02115739  0.78921338  0.86881453     0.14800
C851        C  0.98101363  0.86292762  0.89347901    -0.16100
H852        H  0.02885455  0.87748136  0.89403999     0.09200
H853        H  0.13766376  0.84625522  0.91828964     0.07000
H854        H  0.12301295  0.87334466  0.93090619     0.08200
H855        H  0.14945922  0.87734119  0.91296959     0.07300
H856        H  0.04203410  0.88385943  0.84860388     0.02100
H857        H  0.05408987  0.85546972  0.83588432     0.02600
H858        H  0.06649289  0.88544022  0.82783888     0.06100
H859        H  0.06453711  0.78466185  0.86568115     0.05100
H860        H  0.08246050  0.80324833  0.88523192    -0.00700
H861        H  0.07914260  0.81303004  0.85602117     0.00800
H862        H  0.98338598  0.86984731  0.91108845     0.04500
H863        H  0.96319814  0.85233240  0.89293687     0.06400
H864        H  0.97953160  0.87923920  0.88189147     0.07300
C865        C  0.02631822  0.86001092  0.10069066    -0.22300
C866        C  0.04762243  0.84518585  0.10400854     0.09600
C867        C  0.04488459  0.81925506  0.10776247     0.10000
C868        C  0.02083485  0.80908842  0.11009068    -0.17300
C869        C  0.99936504  0.82430704  0.10905886    -0.27700
C870        C  0.00215692  0.84993430  0.10306273     0.18400
C871        C  0.07209632  0.85762536  0.10762400     0.12300
C872        C  0.06742812  0.80248489  0.11014562    -0.12000
H873        H  0.01896462  0.78940633  0.11421500     0.12600
C874        C  0.97997225  0.86692534  0.09929653    -0.22900
H875        H  0.02863646  0.87986935  0.09753400     0.08300
C876        C  0.08789853  0.86501762  0.08972664     0.04600
C877        C  0.11149521  0.87542805  0.09476553    -0.20100
C878        C  0.11944097  0.87859719  0.11731535    -0.12400
C879        C  0.10343399  0.87092988  0.13518414     0.13300
C880        C  0.07985764  0.86112833  0.13002725    -0.22800
C881        C  0.07997934  0.86153771  0.06546900    -0.05900
H882        H  0.12383776  0.88095090  0.08110655     0.14800
C883        C  0.11083635  0.87117915  0.15990086    -0.16100
H884        H  0.06769440  0.85516696  0.14369853     0.09200
H885        H  0.96699979  0.85833900  0.08681134     0.07000
H886        H  0.98576485  0.88544990  0.09255804     0.08200
H887        H  0.97003588  0.87041164  0.11546201     0.07300
H888        H  0.07885451  0.80833378  0.12493360     0.02100
H889        H  0.07898716  0.80366692  0.09457630     0.02600
H890        H  0.06200073  0.78261130  0.11266357     0.06100
H891        H  0.09457191  0.86813762  0.05350947     0.05100
H892        H  0.06257845  0.87231132  0.06216920    -0.00700
H893        H  0.07645300  0.84139279  0.06211242     0.00800
H894        H  0.09835892  0.88409735  0.16935029     0.04500
H895        H  0.13041503  0.87677685  0.16301547     0.06400
H896        H  0.10874740  0.85204927  0.16703493     0.07300
C897        C  0.91794656  0.75239791  0.01665651    -0.22300
C898        C  0.91070469  0.77393822  0.00484077     0.09600
C899        C  0.90318748  0.79552943  0.01673109     0.10000
C900        C  0.90327198  0.79516847  0.04042338    -0.17300
C901        C  0.91091721  0.77377780  0.05234107    -0.27700
C902        C  0.91798770  0.75193006  0.04036333     0.18400
C903        C  0.91116894  0.77355785  0.97993688     0.12300
C904        C  0.89547179  0.81899700  0.00439180    -0.12000
H905        H  0.89787829  0.81183025  0.04971424     0.12600
C906        C  0.92484998  0.72764029  0.05185912    -0.22900
H907        H  0.92343462  0.73581242  0.00729412     0.08300
C908        C  0.93319821  0.77913102  0.96791919     0.04600
C909        C  0.93252345  0.77945348  0.94422910    -0.20100
C910        C  0.91029330  0.77440312  0.93239947    -0.12400
C911        C  0.88838865  0.76793056  0.94454009     0.13300
C912        C  0.88909964  0.76787811  0.96824780    -0.22800
C913        C  0.95722308  0.78516834  0.98012568    -0.05900
H914        H  0.94927658  0.78432642  0.93488783     0.14800
C915        C  0.86426588  0.76017027  0.93325982    -0.16100
H916        H  0.87235769  0.76325516  0.97771873     0.09200
H917        H  0.94454289  0.72276301  0.04783049     0.07000
H918        H  0.91246860  0.71247972  0.04552880     0.08200
H919        H  0.92271156  0.72822005  0.07049990     0.07300
H920        H  0.87900127  0.81506244  0.99348584     0.02100
H921        H  0.91113450  0.82569777  0.99366411     0.02600
H922        H  0.89036293  0.83424842  0.01631230     0.06100
H923        H  0.97264878  0.78931541  0.96812025     0.05100
H924        H  0.96296948  0.76899901  0.99074869    -0.00700
H925        H  0.95449707  0.80180666  0.99112083     0.00800
H926        H  0.85856517  0.74149037  0.93969918     0.04500
H927        H  0.86574643  0.75852269  0.91462467     0.06400
H928        H  0.84935567  0.77391918  0.93736779     0.07300
C929        C  0.86674007  0.97182728  0.89038163    -0.22300
C930        C  0.85377448  0.95080893  0.88239767     0.09600
C931        C  0.82953891  0.95376285  0.87328674     0.10000
C932        C  0.81953861  0.97791858  0.87080700    -0.17300
C933        C  0.83333051  0.99922233  0.87704744    -0.27700
C934        C  0.85667227  0.99600914  0.88812691     0.18400
C935        C  0.86715480  0.92657440  0.88047459     0.12300
C936        C  0.81480733  0.93148398  0.86510377    -0.12000
H937        H  0.80155062  0.98023143  0.86255077     0.12600
C938        C  0.87137377  0.01752215  0.89786095    -0.22900
H939        H  0.88521305  0.96942884  0.89769525     0.08300
C940        C  0.88144103  0.92127292  0.86101256     0.04600
C941        C  0.89214053  0.89753038  0.85847292    -0.20100
C942        C  0.88877539  0.87867894  0.87479398    -0.12400
C943        C  0.87553262  0.88441887  0.89492991     0.13300
C944        C  0.86463984  0.90829945  0.89739512    -0.22800
C945        C  0.88470345  0.94045150  0.84250415    -0.05900
H946        H  0.90226732  0.89331983  0.84303962     0.14800
C947        C  0.87308854  0.86624115  0.91431479    -0.16100
H948        H  0.85396078  0.91262117  0.91249188     0.09200
H949        H  0.88937353  0.01940948  0.88867052     0.07000
H950        H  0.87537192  0.01381405  0.91602102     0.08200
H951        H  0.86112671  0.03553533  0.89705638     0.07300
H952        H  0.81177438  0.91829217  0.87936710     0.02100
H953        H  0.82519524  0.92173989  0.85142293     0.02600
H954        H  0.79622859  0.93705927  0.85831204     0.06100
H955        H  0.89623073  0.93314308  0.82833067     0.05100
H956        H  0.89413571  0.95731617  0.84941437    -0.00700
H957        H  0.86616517  0.94587163  0.83554443     0.00800
H958        H  0.88032243  0.87507007  0.93004730     0.04500
H959        H  0.88390160  0.84877907  0.91174308     0.06400
H960        H  0.85309119  0.86139234  0.91680225     0.07300
C961        C  0.93203662  0.11392182  0.88323333    -0.22300
C962        C  0.93403078  0.14001108  0.88182324     0.09600
C963        C  0.91223323  0.15482384  0.88131174     0.10000
C964        C  0.88880430  0.14308854  0.88072771    -0.17300
C965        C  0.88669448  0.11683564  0.87996825    -0.27700
C966        C  0.90860969  0.10206718  0.88228759     0.18400
C967        C  0.95891246  0.15114992  0.87774782     0.12300
C968        C  0.91377324  0.18297369  0.88033486    -0.12000
H969        H  0.87216684  0.15456585  0.87906645     0.12600
C970        C  0.90756419  0.07393099  0.88380707    -0.22900
H971        H  0.94897556  0.10276254  0.88391318     0.08300
C972        C  0.97539424  0.15739734  0.89552138     0.04600
C973        C  0.99898189  0.16747499  0.89031963    -0.20100
C974        C  0.00625776  0.17134668  0.86773757    -0.12400
C975        C  0.98916403  0.16601935  0.84999449     0.13300
C976        C  0.96591649  0.15556049  0.85527228    -0.22800
C977        C  0.96807373  0.15330742  0.91983913    -0.05900
H978        H  0.01198290  0.17183953  0.90386587     0.14800
C979        C  0.99423583  0.17192744  0.82540092    -0.16100
H980        H  0.95290440  0.15114444  0.84172474     0.09200
H981        H  0.92627108  0.06575549  0.88739991     0.07000
H982        H  0.90095561  0.06572216  0.86762921     0.08200
H983        H  0.89486067  0.06844018  0.89778833     0.07300
H984        H  0.92377318  0.18886306  0.86476035     0.02100
H985        H  0.92402355  0.19006122  0.89538880     0.02600
H986        H  0.89492795  0.19174978  0.88012409     0.06100
H987        H  0.98310300  0.15926959  0.93167625     0.05100
H988        H  0.96427072  0.13313739  0.92276976    -0.00700
H989        H  0.95096941  0.16427852  0.92375331     0.00800
H990        H  0.99486735  0.15428478  0.81547305     0.04500
H991        H  0.01186313  0.18231797  0.82262868     0.06400
H992        H  0.97893612  0.18388694  0.81864069     0.07300
C993        C  0.84747162  0.90324284  0.11107393    -0.22300
C994        C  0.86439016  0.92307680  0.10875072     0.09600
C995        C  0.89025903  0.91782305  0.10774547     0.10000
C996        C  0.89863943  0.89297105  0.11021605    -0.17300
C997        C  0.88178807  0.87316750  0.11390344    -0.27700
C998        C  0.85569992  0.87845715  0.11406915     0.18400
C999        C  0.85479238  0.94906442  0.11172388     0.12300
C1000       C  0.90901436  0.93852473  0.10447193    -0.12000
H1001       H  0.91854795  0.88907086  0.10999443     0.12600
C1002       C  0.83581354  0.85922840  0.11922311    -0.22900
H1003       H  0.82764645  0.90739010  0.11225330     0.08300
C1004       C  0.84096765  0.96183550  0.09488705     0.04600
C1005       C  0.83055301  0.98551652  0.09981610    -0.20100
C1006       C  0.83331057  0.99651019  0.12135025    -0.12400
C1007       C  0.84652013  0.98308092  0.13839413     0.13300
C1008       C  0.85757237  0.96001429  0.13310429    -0.22800
C1009       C  0.83741596  0.95055507  0.07175158    -0.05900
H1010       H  0.82030783  0.99550132  0.08679330     0.14800
C1011       C  0.84812086  0.99137623  0.16282104    -0.16100
H1012       H  0.86750201  0.94979510  0.14622257     0.09200
H1013       H  0.82332803  0.85710663  0.10429600     0.07000
H1014       H  0.82444333  0.86570745  0.13382539     0.08200
H1015       H  0.84314228  0.84060246  0.12387142     0.07300
H1016       H  0.90799466  0.95196037  0.11877476     0.02100
H1017       H  0.90495042  0.94854723  0.08840129     0.02600
H1018       H  0.92844396  0.93118931  0.10362524     0.06100
H1019       H  0.82650693  0.96311690  0.06043910     0.05100
H1020       H  0.82719630  0.93254574  0.07316698    -0.00700
H1021       H  0.85593988  0.94712907  0.06385051     0.00800
H1022       H  0.84220023  0.97575638  0.17401678     0.04500
H1023       H  0.83571395  0.00728219  0.16701420     0.06400
H1024       H  0.86774474  0.99639147  0.16700844     0.07300
C1025       C  0.91543058  0.14881492  0.10860354    -0.22300
C1026       C  0.93546942  0.13206750  0.11006952     0.09600
C1027       C  0.93071552  0.10621367  0.11210066     0.10000
C1028       C  0.90590500  0.09780934  0.11401845    -0.17300
C1029       C  0.88565204  0.11470276  0.11413096    -0.27700
C1030       C  0.89059156  0.14061990  0.11061592     0.18400
C1031       C  0.96087887  0.14251746  0.11336818     0.12300
C1032       C  0.95189466  0.08760480  0.11274842    -0.12000
H1033       H  0.90241116  0.07798405  0.11628207     0.12600
C1034       C  0.87021273  0.16019108  0.11029046    -0.22900
H1035       H  0.91938352  0.16866227  0.10717439     0.08300
C1036       C  0.97506419  0.15276711  0.09548730     0.04600
C1037       C  0.99830517  0.16399440  0.10030272    -0.20100
C1038       C  0.00741566  0.16523819  0.12260310    -0.12400
C1039       C  0.99271118  0.15556822  0.14052732     0.13300
C1040       C  0.96987606  0.14403925  0.13558855    -0.22800
C1041       C  0.96574606  0.15164251  0.07144370    -0.05900
H1042       H  0.00945265  0.17162037  0.08665489     0.14800
C1043       C  0.99979512  0.15802748  0.16519902    -0.16100
H1044       H  0.95854492  0.13679793  0.14933820     0.09200
H1045       H  0.85718282  0.15657242  0.09600340     0.07000
H1046       H  0.87782837  0.17935977  0.10794032     0.08200
H1047       H  0.85990369  0.16002107  0.12660384     0.07300
H1048       H  0.96409218  0.09128142  0.12760794     0.02100
H1049       H  0.96314323  0.08924789  0.09702522     0.02600
H1050       H  0.94495541  0.06806051  0.11401503     0.06100
H1051       H  0.97928182  0.16018353  0.05946663     0.05100
H1052       H  0.94776780  0.16193126  0.06995505    -0.00700
H1053       H  0.96282163  0.13182229  0.06643074     0.00800
H1054       H  0.98455540  0.16779404  0.17443626     0.04500
H1055       H  0.01706536  0.16896960  0.16806282     0.06400
H1056       H  0.00236881  0.13912438  0.17267348     0.07300
C1057       C  0.78947259  0.05961414  0.01660861    -0.22300
C1058       C  0.78286422  0.08178423  0.00543138     0.09600
C1059       C  0.77795782  0.10367689  0.01793788     0.10000
C1060       C  0.78044807  0.10308565  0.04150237    -0.17300
C1061       C  0.78757597  0.08107188  0.05282452    -0.27700
C1062       C  0.79215961  0.05897307  0.04022799     0.18400
C1063       C  0.78357512  0.08240430  0.98052058     0.12300
C1064       C  0.77030765  0.12766362  0.00637706    -0.12000
H1065       H  0.77674210  0.11993289  0.05118475     0.12600
C1066       C  0.80118737  0.03487035  0.05075756    -0.22900
H1067       H  0.79352452  0.04297569  0.00674062     0.08300
C1068       C  0.80572145  0.08908005  0.96913255     0.04600
C1069       C  0.80555452  0.09056754  0.94550709    -0.20100
C1070       C  0.78382190  0.08533413  0.93303852    -0.12400
C1071       C  0.76151792  0.07874591  0.94449591     0.13300
C1072       C  0.76177547  0.07718730  0.96821309    -0.22800
C1073       C  0.82953104  0.09454461  0.98193441    -0.05900
H1074       H  0.82261844  0.09549365  0.93665671     0.14800
C1075       C  0.73698427  0.07427931  0.93251160    -0.16100
H1076       H  0.74476927  0.07237761  0.97720027     0.09200
H1077       H  0.81892173  0.02900423  0.04253660     0.07000
H1078       H  0.78697932  0.01999832  0.04811740     0.08200
H1079       H  0.80509987  0.03645656  0.06909689     0.07300
H1080       H  0.75268599  0.12463992  0.99678166     0.02100
H1081       H  0.78515918  0.13377214  0.99449054     0.02600
H1082       H  0.76709808  0.14300301  0.01874275     0.06100
H1083       H  0.84514827  0.09938172  0.97035180     0.05100
H1084       H  0.83516258  0.07783521  0.99190542    -0.00700
H1085       H  0.82661857  0.11055910  0.99361441     0.00800
H1086       H  0.73085471  0.05468466  0.93540952     0.04500
H1087       H  0.73787714  0.07766337  0.91403330     0.06400
H1088       H  0.72258066  0.08716208  0.93943452     0.07300
C1089       C  0.25739447  0.99413864  0.27639233    -0.22300
C1090       C  0.24513483  0.00099759  0.25627931     0.09600
C1091       C  0.22909839  0.02199918  0.25621168     0.10000
C1092       C  0.22501506  0.03508261  0.27639194    -0.17300
C1093       C  0.23568281  0.02721366  0.29694980    -0.27700
C1094       C  0.25276225  0.00686291  0.29686821     0.18400
C1095       C  0.24491975  0.98348369  0.23680704     0.12300
C1096       C  0.21464758  0.02948247  0.23528089    -0.12000
H1097       H  0.21202464  0.05068978  0.27642182     0.12600
C1098       C  0.26501486  0.99675342  0.31799237    -0.22900
H1099       H  0.26935586  0.97773322  0.27642184     0.08300
C1100       C  0.25816120  0.98825032  0.21661402     0.04600
C1101       C  0.25203450  0.97469290  0.19690868    -0.20100
C1102       C  0.23299877  0.95653356  0.19714475    -0.12400
C1103       C  0.22167040  0.95009590  0.21806766     0.13300
C1104       C  0.22780630  0.96370013  0.23758037    -0.22800
C1105       C  0.27845158  0.00776485  0.21588877    -0.05900
H1106       H  0.26122698  0.97916772  0.18107492     0.14800
C1107       C  0.20302204  0.92899066  0.22007715    -0.16100
H1108       H  0.21808435  0.95987106  0.25330881     0.09200
H1109       H  0.28565891  0.99790384  0.31620345     0.07000
H1110       H  0.25967195  0.97682885  0.32029548     0.08200
H1111       H  0.25968752  0.00685231  0.33358327     0.07300
H1112       H  0.20252484  0.01377051  0.22970493     0.02100
H1113       H  0.22766979  0.03440199  0.22139707     0.02600
H1114       H  0.20245375  0.04597015  0.23842260     0.06100
H1115       H  0.28703611  0.00906826  0.19881282     0.05100
H1116       H  0.29335795  0.00278294  0.22821539    -0.00700
H1117       H  0.27083746  0.02643348  0.22034590     0.00800
H1118       H  0.19793640  0.92529643  0.23800449     0.04500
H1119       H  0.21116320  0.91151856  0.21303467     0.06400
H1120       H  0.18546943  0.93367237  0.21098142     0.07300
C1121       C  0.15213591  0.18871440  0.23368911    -0.22300
C1122       C  0.17238007  0.17208844  0.23319837     0.09600
C1123       C  0.18283851  0.16505495  0.21217175     0.10000
C1124       C  0.17097715  0.17255187  0.19204504    -0.17300
C1125       C  0.14875302  0.18648508  0.19272279    -0.27700
C1126       C  0.14024372  0.19615396  0.21365300     0.18400
C1127       C  0.17749539  0.15736801  0.25389743     0.12300
C1128       C  0.20559567  0.14844146  0.21107230    -0.12000
H1129       H  0.17770146  0.16552447  0.17593629     0.12600
C1130       C  0.11807593  0.21349471  0.21549923    -0.22900
H1131       H  0.14425207  0.19426056  0.24984578     0.08300
C1132       C  0.18986572  0.16711123  0.27304153     0.04600
C1133       C  0.19208805  0.15219531  0.29262494    -0.20100
C1134       C  0.18210610  0.12778533  0.29341860    -0.12400
C1135       C  0.16944800  0.11831486  0.27393417     0.13300
C1136       C  0.16737945  0.13330994  0.25465587    -0.22800
C1137       C  0.20078991  0.19305786  0.27267238    -0.05900
H1138       H  0.20172541  0.15962679  0.30731723     0.14800
C1139       C  0.15727519  0.09278358  0.27303048    -0.16100
H1140       H  0.15740267  0.12633435  0.23993178     0.09200
H1141       H  0.12384693  0.23094055  0.22429233     0.07000
H1142       H  0.10314392  0.20431934  0.22553638     0.08200
H1143       H  0.11032697  0.21897155  0.19878032     0.07300
H1144       H  0.20160061  0.13000562  0.21892449     0.02100
H1145       H  0.22131701  0.15747525  0.22026418     0.02600
H1146       H  0.21157460  0.14508978  0.19331998     0.06100
H1147       H  0.21022927  0.19769611  0.28891037     0.05100
H1148       H  0.18575103  0.20703965  0.26976532    -0.00700
H1149       H  0.21477126  0.19447060  0.25884494     0.00800
H1150       H  0.14690627  0.08971730  0.25694443     0.04500
H1151       H  0.14361613  0.09078518  0.28703099     0.06400
H1152       H  0.17170779  0.07788439  0.27406803     0.07300
C1153       C  0.21473059  0.10518415  0.51750340    -0.22300
C1154       C  0.21724528  0.08149099  0.50771528     0.09600
C1155       C  0.22267424  0.06066037  0.52154075     0.10000
C1156       C  0.22502521  0.06400705  0.54506078    -0.17300
C1157       C  0.22204997  0.08774152  0.55512496    -0.27700
C1158       C  0.21700326  0.10869950  0.54094816     0.18400
C1159       C  0.21532489  0.07954469  0.48274746     0.12300
C1160       C  0.22560935  0.03490294  0.51150710    -0.12000
H1161       H  0.22876466  0.04786126  0.55566129     0.12600
C1162       C  0.21454202  0.13500977  0.55000744    -0.22900
H1163       H  0.21101536  0.12109813  0.50659349     0.08300
C1164       C  0.19211003  0.08144642  0.47140044     0.04600
C1165       C  0.19164315  0.08234500  0.44760708    -0.20100
C1166       C  0.21385953  0.08116358  0.43503486    -0.12400
C1167       C  0.23707817  0.07902804  0.44646699     0.13300
C1168       C  0.23745690  0.07814738  0.47017871    -0.22800
C1169       C  0.16790386  0.08223744  0.48440525    -0.05900
H1170       H  0.17389934  0.08371809  0.43876517     0.14800
C1171       C  0.26189909  0.07862547  0.43434047    -0.16100
H1172       H  0.25525184  0.07709937  0.47898649     0.09200
H1173       H  0.19753932  0.13665858  0.56065645     0.07000
H1174       H  0.21266979  0.14899316  0.53617770     0.08200
H1175       H  0.23143288  0.13997863  0.56000605     0.07300
H1176       H  0.24147589  0.03472800  0.49941034     0.02100
H1177       H  0.20818828  0.02956946  0.50245119     0.02600
H1178       H  0.22938268  0.02059269  0.52473582     0.06100
H1179       H  0.15144885  0.08314626  0.47291588     0.05100
H1180       H  0.16746204  0.09897348  0.49553163    -0.00700
H1181       H  0.16619240  0.06512049  0.49496617     0.00800
H1182       H  0.27372036  0.09425824  0.44060479     0.04500
H1183       H  0.26020597  0.08084511  0.41575590     0.06400
H1184       H  0.27160060  0.06064765  0.43786443     0.07300
C1185       C  0.23739693  0.03437653  0.73838822    -0.22300
C1186       C  0.24697893  0.00998021  0.73704258     0.09600
C1187       C  0.25612695  0.00111287  0.71605311     0.10000
C1188       C  0.25338370  0.01601565  0.69654007    -0.17300
C1189       C  0.24159324  0.03949244  0.69757857    -0.27700
C1190       C  0.23499080  0.04940786  0.71902908     0.18400
C1191       C  0.24332903  0.99301598  0.75676567     0.12300
C1192       C  0.26811630  0.97566403  0.71411746    -0.12000
H1193       H  0.25872365  0.00849059  0.68019780     0.12600
C1194       C  0.22491960  0.07559022  0.72206049    -0.22900
H1195       H  0.23056170  0.04133645  0.75448227     0.08300
C1196       C  0.25566298  0.99644657  0.77769945     0.04600
C1197       C  0.24870506  0.98169371  0.79644799    -0.20100
C1198       C  0.22960087  0.96359306  0.79480880    -0.12400
C1199       C  0.21829458  0.95935091  0.77331106     0.13300
C1200       C  0.22514343  0.97429978  0.75481560    -0.22800
C1201       C  0.27617119  0.01556588  0.78023449    -0.05900
H1202       H  0.25772031  0.98491901  0.81263893     0.14800
C1203       C  0.19908911  0.93908437  0.76933872    -0.16100
H1204       H  0.21566131  0.97185446  0.73871524     0.09200
H1205       H  0.23660197  0.08574577  0.73462546     0.07000
H1206       H  0.20539206  0.07478630  0.72839713     0.08200
H1207       H  0.22528036  0.08667068  0.70619822     0.07300
H1208       H  0.25450122  0.96077584  0.71845320     0.02100
H1209       H  0.28434802  0.97450829  0.72583313     0.02600
H1210       H  0.27492009  0.97200644  0.69666274     0.06100
H1211       H  0.28439601  0.01529273  0.79752348     0.05100
H1212       H  0.26874283  0.03464621  0.77708576    -0.00700
H1213       H  0.29131900  0.01152836  0.76791500     0.00800
H1214       H  0.19437680  0.93708912  0.75109397     0.04500
H1215       H  0.18141897  0.94363729  0.77826552     0.06400
H1216       H  0.20648413  0.92076973  0.77525251     0.07300
C1217       C  0.20331947  0.15955450  0.72768441    -0.22300
C1218       C  0.17840843  0.16376725  0.73403227     0.09600
C1219       C  0.15888682  0.15895092  0.71850198     0.10000
C1220       C  0.16464844  0.14838230  0.69748789    -0.17300
C1221       C  0.18937819  0.14251403  0.69171772    -0.27700
C1222       C  0.20910269  0.14880122  0.70665138     0.18400
C1223       C  0.17257264  0.16942267  0.75791271     0.12300
C1224       C  0.13186900  0.16357715  0.72457460    -0.12000
H1225       H  0.14965020  0.14346021  0.68591435     0.12600
C1226       C  0.23615040  0.14310867  0.70161218    -0.22900
H1227       H  0.21818848  0.16328484  0.73973459     0.08300
C1228       C  0.17203879  0.14999457  0.77412638     0.04600
C1229       C  0.16128184  0.15454796  0.79531868    -0.20100
C1230       C  0.15095831  0.17795583  0.80051937    -0.12400
C1231       C  0.15265534  0.19780774  0.78473086     0.13300
C1232       C  0.16375637  0.19330872  0.76362298    -0.22800
C1233       C  0.18139534  0.12405726  0.76859146    -0.05900
H1234       H  0.15966117  0.13939593  0.80745884     0.14800
C1235       C  0.14139704  0.22331882  0.78883931    -0.16100
H1236       H  0.16405848  0.20805737  0.75100300     0.09200
H1237       H  0.24703933  0.16079836  0.70163267     0.07000
H1238       H  0.24382397  0.13055243  0.71490890     0.08200
H1239       H  0.23891541  0.13388091  0.68500246     0.07300
H1240       H  0.12892739  0.18376592  0.72814525     0.02100
H1241       H  0.12677677  0.15247087  0.73977869     0.02600
H1242       H  0.11901906  0.15817750  0.71059864     0.06100
H1243       H  0.17902269  0.11099830  0.78307049     0.05100
H1244       H  0.20160730  0.12477507  0.76437336    -0.00700
H1245       H  0.17087628  0.11637419  0.75392351     0.00800
H1246       H  0.15624064  0.23778094  0.78761443     0.04500
H1247       H  0.13244820  0.22517602  0.80565491     0.06400
H1248       H  0.12691206  0.22717561  0.77578079     0.07300
C1249       C  0.83039633  0.81567882  0.27416772    -0.22300
C1250       C  0.82492839  0.82644490  0.25307616     0.09600
C1251       C  0.80921985  0.84764953  0.25188363     0.10000
C1252       C  0.80113737  0.85893990  0.27198434    -0.17300
C1253       C  0.80879371  0.84975155  0.29315080    -0.27700
C1254       C  0.82288450  0.82735036  0.29433258     0.18400
C1255       C  0.83989904  0.81881069  0.23320616     0.12300
C1256       C  0.80256981  0.85948306  0.22948917    -0.12000
H1257       H  0.79035044  0.87613014  0.27118734     0.12600
C1258       C  0.83208801  0.81705092  0.31662316    -0.22900
H1259       H  0.84252802  0.79941256  0.27484777     0.08300
C1260       C  0.86489050  0.82686042  0.23116159     0.04600
C1261       C  0.87790008  0.82200223  0.21115155    -0.20100
C1262       C  0.86661097  0.80957655  0.19272810    -0.12400
C1263       C  0.84156247  0.80095957  0.19509687     0.13300
C1264       C  0.82862351  0.80564255  0.21541123    -0.22800
C1265       C  0.87765436  0.84149669  0.24977130    -0.05900
H1266       H  0.89694635  0.82874323  0.20978991     0.14800
C1267       C  0.82810503  0.78701100  0.17653121    -0.16100
H1268       H  0.80936483  0.79964063  0.21723807     0.09200
H1269       H  0.84377765  0.83123633  0.32541816     0.07000
H1270       H  0.84365449  0.79996048  0.31428241     0.08200
H1271       H  0.81591584  0.81202853  0.32746507     0.07300
H1272       H  0.79218009  0.84584486  0.21886935     0.02100
H1273       H  0.81985220  0.86530478  0.22051603     0.02600
H1274       H  0.79058204  0.87630664  0.23168855     0.06100
H1275       H  0.89693468  0.84712628  0.24499557     0.05100
H1276       H  0.87900734  0.82993405  0.26533704    -0.00700
H1277       H  0.86686632  0.85878539  0.25349867     0.00800
H1278       H  0.80914190  0.78095140  0.18188961     0.04500
H1279       H  0.83882548  0.76996493  0.17185685     0.06400
H1280       H  0.82571665  0.79929561  0.16151716     0.07300
C1281       C  0.77781197  0.02624740  0.23666826    -0.22300
C1282       C  0.75901413  0.00817261  0.23468796     0.09600
C1283       C  0.74536955  0.00629076  0.21433942     0.10000
C1284       C  0.75307773  0.02029146  0.19542290    -0.17300
C1285       C  0.77378553  0.03662005  0.19658947    -0.27700
C1286       C  0.78519814  0.04079571  0.21806985     0.18400
C1287       C  0.75661986  0.98964539  0.25326352     0.12300
C1288       C  0.72269014  0.98965996  0.21268890    -0.12000
H1289       H  0.74336287  0.01772395  0.17947307     0.12600
C1290       C  0.80524569  0.06026444  0.22185235    -0.22900
H1291       H  0.78763607  0.02809447  0.25267036     0.08300
C1292       C  0.76917723  0.96644744  0.25191476     0.04600
C1293       C  0.77144474  0.95163422  0.27138371    -0.20100
C1294       C  0.76281462  0.95992563  0.29260968    -0.12400
C1295       C  0.74922121  0.98281107  0.29373167     0.13300
C1296       C  0.74602076  0.99709534  0.27388698    -0.22800
C1297       C  0.78217244  0.95823133  0.23047078    -0.05900
H1298       H  0.78179749  0.93419524  0.27035419     0.14800
C1299       C  0.73947169  0.99415219  0.31539501    -0.16100
H1300       H  0.73676704  0.01514373  0.27486284     0.09200
H1301       H  0.80987324  0.06240054  0.24010357     0.07000
H1302       H  0.79868959  0.07876744  0.21561219     0.08200
H1303       H  0.82277437  0.05477455  0.21313353     0.07300
H1304       H  0.70855040  0.99582126  0.22526981     0.02100
H1305       H  0.72769678  0.96990723  0.21621071     0.02600
H1306       H  0.71400575  0.99053951  0.19560221     0.06100
H1307       H  0.79188242  0.93999287  0.23266592     0.05100
H1308       H  0.79639015  0.97234468  0.22552133    -0.00700
H1309       H  0.76848756  0.95606803  0.21650348     0.00800
H1310       H  0.74798170  0.01292153  0.31785530     0.04500
H1311       H  0.74354428  0.98318278  0.33076357     0.06400
H1312       H  0.71885845  0.99638036  0.31413480     0.07300
C1313       C  0.76534839  0.90961220  0.51646696    -0.22300
C1314       C  0.78734935  0.90406207  0.50464297     0.09600
C1315       C  0.80944048  0.89839284  0.51663328     0.10000
C1316       C  0.80911400  0.89864354  0.54035016    -0.17300
C1317       C  0.78719890  0.90447450  0.55239326    -0.27700
C1318       C  0.76491152  0.90984096  0.54024923     0.18400
C1319       C  0.78684793  0.90411462  0.47963230     0.12300
C1320       C  0.83327905  0.89189219  0.50437385    -0.12000
H1321       H  0.82617479  0.89442263  0.54955372     0.12600
C1322       C  0.74044244  0.91489460  0.55208232    -0.22900
H1323       H  0.74843459  0.91366728  0.50698417     0.08300
C1324       C  0.77919707  0.88285753  0.46733194     0.04600
C1325       C  0.77948078  0.88363728  0.44361734    -0.20100
C1326       C  0.78725784  0.90518591  0.43192334    -0.12400
C1327       C  0.79557652  0.92630147  0.44436760     0.13300
C1328       C  0.79485868  0.92557250  0.46810857    -0.22800
C1329       C  0.77085535  0.85936729  0.47924919    -0.05900
H1330       H  0.77332739  0.86738523  0.43413375     0.14800
C1331       C  0.80646096  0.94937340  0.43344575    -0.16100
H1332       H  0.80116067  0.94166506  0.47775186     0.09200
H1333       H  0.72476282  0.91700971  0.53985495     0.07000
H1334       H  0.74165233  0.93252730  0.56194898     0.08200
H1335       H  0.73586090  0.89907452  0.56355216     0.07300
H1336       H  0.83909410  0.90782076  0.49352273     0.02100
H1337       H  0.83025793  0.87512134  0.49360505     0.02600
H1338       H  0.84879370  0.88772595  0.51634040     0.06100
H1339       H  0.76561581  0.84441557  0.46705807     0.05100
H1340       H  0.75431034  0.86348240  0.48996216    -0.00700
H1341       H  0.78623254  0.85216579  0.49011552     0.00800
H1342       H  0.79432279  0.96576567  0.43706460     0.04500
H1343       H  0.80877826  0.94764314  0.41489986     0.06400
H1344       H  0.82535782  0.95298109  0.44058152     0.07300
C1345       C  0.85376765  0.83255352  0.71299413    -0.22300
C1346       C  0.83549328  0.83256543  0.72996469     0.09600
C1347       C  0.81135576  0.84199491  0.72537249     0.10000
C1348       C  0.80637907  0.85249390  0.70407113    -0.17300
C1349       C  0.82530646  0.85427644  0.68777600    -0.27700
C1350       C  0.84902646  0.84360810  0.69193878     0.18400
C1351       C  0.84364414  0.82716161  0.75327924     0.12300
C1352       C  0.79129650  0.84185273  0.74324850    -0.12000
H1353       H  0.78823412  0.86077735  0.70065496     0.12600
C1354       C  0.86952585  0.84460900  0.67443904    -0.22900
H1355       H  0.87229541  0.82538646  0.71679029     0.08300
C1356       C  0.84724278  0.80257165  0.76129286     0.04600
C1357       C  0.85812387  0.79900620  0.78270800    -0.20100
C1358       C  0.86552747  0.81956095  0.79592243    -0.12400
C1359       C  0.86072092  0.84416326  0.78826320     0.13300
C1360       C  0.85001586  0.84761761  0.76692153    -0.22800
C1361       C  0.84008079  0.78029659  0.74708423    -0.05900
H1362       H  0.86198644  0.78021226  0.78862569     0.14800
C1363       C  0.86664998  0.86717274  0.80210456    -0.16100
H1364       H  0.84707681  0.86647988  0.76062645     0.09200
H1365       H  0.86308310  0.83549305  0.65856785     0.07000
H1366       H  0.88670511  0.83483183  0.68030114     0.08200
H1367       H  0.87455171  0.86434150  0.67080085     0.07300
H1368       H  0.79728344  0.85323922  0.75801708     0.02100
H1369       H  0.78780020  0.82232995  0.74886380     0.02600
H1370       H  0.77343571  0.84975739  0.73677617     0.06100
H1371       H  0.84395389  0.76239158  0.75600773     0.05100
H1372       H  0.85086035  0.78038530  0.73103263    -0.00700
H1373       H  0.81978092  0.78109018  0.74312387     0.00800
H1374       H  0.88094482  0.87858871  0.79322386     0.04500
H1375       H  0.87365275  0.86274891  0.81931487     0.06400
H1376       H  0.84942389  0.87857550  0.80418718     0.07300
C1377       C  0.77877510  0.96367775  0.73448154    -0.22300
C1378       C  0.76936832  0.98811001  0.73289875     0.09600
C1379       C  0.76097092  0.99715131  0.71172633     0.10000
C1380       C  0.76425627  0.98231424  0.69226764    -0.17300
C1381       C  0.77572686  0.95865880  0.69359535    -0.27700
C1382       C  0.78152619  0.94860839  0.71521107     0.18400
C1383       C  0.77201040  0.00476076  0.75289748     0.12300
C1384       C  0.74911312  0.02264381  0.70962171    -0.12000
H1385       H  0.75935751  0.98990960  0.67582142     0.12600
C1386       C  0.79073121  0.92215315  0.71862952    -0.22900
H1387       H  0.78487085  0.95659301  0.75079834     0.08300
C1388       C  0.75800472  0.00136523  0.77289122     0.04600
C1389       C  0.76408083  0.01541912  0.79228459    -0.20100
C1390       C  0.78399402  0.03266175  0.79219734    -0.12400
C1391       C  0.79701674  0.03702090  0.77161942     0.13300
C1392       C  0.79091631  0.02287788  0.75238498    -0.22800
C1393       C  0.73672374  0.98293647  0.77375558    -0.05900
H1394       H  0.75377663  0.01224046  0.80781164     0.14800
C1395       C  0.81719743  0.05664178  0.76949259    -0.16100
H1396       H  0.80154802  0.02539216  0.73692676     0.09200
H1397       H  0.77867420  0.91256303  0.73123150     0.07000
H1398       H  0.81024493  0.92243322  0.72510212     0.08200
H1399       H  0.78998580  0.91076330  0.70296403     0.07300
H1400       H  0.76260170  0.03740572  0.71465459     0.02100
H1401       H  0.73242294  0.02368409  0.72075615     0.02600
H1402       H  0.74302687  0.02654500  0.69197255     0.06100
H1403       H  0.72729559  0.98308517  0.79050621     0.05100
H1404       H  0.74373275  0.96369225  0.77064017    -0.00700
H1405       H  0.72263829  0.98780476  0.76062484     0.00800
H1406       H  0.83388258  0.05123176  0.77956278     0.04500
H1407       H  0.80998591  0.07505020  0.77532600     0.06400
H1408       H  0.82346489  0.05890248  0.75167960     0.07300
C1409       C  0.99349071  0.75963074  0.27018215    -0.22300
C1410       C  0.00714222  0.74833288  0.25270456     0.09600
C1411       C  0.03130543  0.73878378  0.25720464     0.10000
C1412       C  0.04204395  0.74250519  0.27871374    -0.17300
C1413       C  0.02913968  0.75579624  0.29552218    -0.27700
C1414       C  0.00427029  0.76361506  0.29152720     0.18400
C1415       C  0.99745729  0.75103559  0.22929706     0.12300
C1416       C  0.04598404  0.72548119  0.23908733    -0.12000
H1417       H  0.06115181  0.73662287  0.28188109     0.12600
C1418       C  0.98946420  0.77706351  0.30953410    -0.22900
H1419       H  0.97495332  0.76691475  0.26662039     0.08300
C1420       C  0.97673365  0.73731235  0.22122471     0.04600
C1421       C  0.96590612  0.74385043  0.20030228    -0.20100
C1422       C  0.97526907  0.76396057  0.18752857    -0.12400
C1423       C  0.99713381  0.77648168  0.19495146     0.13300
C1424       C  0.00768647  0.77006571  0.21587320    -0.22800
C1425       C  0.96587742  0.71614276  0.23485200    -0.05900
H1426       H  0.94935427  0.73405700  0.19444791     0.14800
C1427       C  0.01001040  0.79652844  0.18124147    -0.16100
H1428       H  0.02374110  0.78044972  0.22205630     0.09200
H1429       H  0.97017842  0.78148838  0.30373762     0.07000
H1430       H  0.99873977  0.79494438  0.31412164     0.08200
H1431       H  0.98809742  0.76504734  0.32482050     0.07300
H1432       H  0.04948367  0.73827279  0.22463090     0.02100
H1433       H  0.03526572  0.70898288  0.23302697     0.02600
H1434       H  0.06436671  0.71883961  0.24552551     0.06100
H1435       H  0.94996060  0.70710423  0.22592191     0.05100
H1436       H  0.95898893  0.72322755  0.25137314    -0.00700
H1437       H  0.98049271  0.70173311  0.23788038     0.00800
H1438       H  0.00914853  0.81463100  0.19045290     0.04500
H1439       H  0.00183244  0.79908027  0.16414516     0.06400
H1440       H  0.02994312  0.79132238  0.17878222     0.07300
C1441       C  0.17444538  0.81982523  0.27350533    -0.22300
C1442       C  0.16346418  0.81367432  0.25271166     0.09600
C1443       C  0.14164621  0.79892788  0.25207803     0.10000
C1444       C  0.12961845  0.79304708  0.27240279    -0.17300
C1445       C  0.13889526  0.80184545  0.29318207    -0.27700
C1446       C  0.16227502  0.81431917  0.29389640     0.18400
C1447       C  0.17051664  0.82857388  0.23279609     0.12300
C1448       C  0.13007248  0.79114845  0.22987654    -0.12000
H1449       H  0.11199368  0.78301394  0.27195803     0.12600
C1450       C  0.17336905  0.82395554  0.31572315    -0.22900
H1451       H  0.19120478  0.83125315  0.27365198     0.08300
C1452       C  0.15961227  0.85233583  0.22965648     0.04600
C1453       C  0.16474747  0.86561268  0.20994448    -0.20100
C1454       C  0.18069713  0.85594811  0.19316793    -0.12400
C1455       C  0.19220305  0.83226673  0.19663891     0.13300
C1456       C  0.18681321  0.81878990  0.21651179    -0.22800
C1457       C  0.14211414  0.86359183  0.24696402    -0.05900
H1458       H  0.15577980  0.88363158  0.20754694     0.14800
C1459       C  0.21039610  0.82122784  0.17990976    -0.16100
H1460       H  0.19506650  0.80049582  0.21928444     0.09200
H1461       H  0.16010572  0.83706855  0.32402617     0.07000
H1462       H  0.19116522  0.83418295  0.31282895     0.08200
H1463       H  0.17749930  0.80804914  0.32723619     0.07300
H1464       H  0.14369696  0.77978123  0.22010465     0.02100
H1465       H  0.12485467  0.80794946  0.21984282     0.02600
H1466       H  0.11294088  0.77974329  0.23243345     0.06100
H1467       H  0.13505432  0.88224396  0.24160802     0.05100
H1468       H  0.15202946  0.86603046  0.26334763    -0.00700
H1469       H  0.12571417  0.85116704  0.24945730     0.00800
H1470       H  0.21851469  0.80335548  0.18615300     0.04500
H1471       H  0.22605634  0.83448776  0.17699004     0.06400
H1472       H  0.20074381  0.81716091  0.16367149     0.07300
C1473       C  0.91880272  0.85771620  0.34812163    -0.22300
C1474       C  0.92624907  0.85121988  0.37006905     0.09600
C1475       C  0.90977455  0.85513876  0.38835085     0.10000
C1476       C  0.88603109  0.86560728  0.38416949    -0.17300
C1477       C  0.87850496  0.87216520  0.36210271    -0.27700
C1478       C  0.89501036  0.86756527  0.34374200     0.18400
C1479       C  0.95128542  0.83972715  0.37285845     0.12300
C1480       C  0.91726744  0.84824059  0.41213204    -0.12000
H1481       H  0.87329328  0.86870792  0.39816066     0.12600
C1482       C  0.88799662  0.87124729  0.31915771    -0.22900
H1483       H  0.93145223  0.85423349  0.33411413     0.08300
C1484       C  0.95498416  0.81390148  0.36925047     0.04600
C1485       C  0.97942760  0.80453959  0.36749931    -0.20100
C1486       C  0.00032204  0.82051099  0.36853013    -0.12400
C1487       C  0.99653363  0.84623081  0.37353816     0.13300
C1488       C  0.97200613  0.85543965  0.37572584    -0.22800
C1489       C  0.93311590  0.79641197  0.36625540    -0.05900
H1490       H  0.98210992  0.78482009  0.36393999     0.14800
C1491       C  0.01805769  0.86415797  0.37656163    -0.16100
H1492       H  0.96890742  0.87525386  0.37856301     0.09200
H1493       H  0.89116500  0.85350838  0.30975928     0.07000
H1494       H  0.89995618  0.88605219  0.31164048     0.08200
H1495       H  0.86816303  0.87624241  0.31639698     0.07300
H1496       H  0.93422867  0.85890454  0.41710001     0.02100
H1497       H  0.92138976  0.82790119  0.41311067     0.02600
H1498       H  0.90220105  0.85254094  0.42447092     0.06100
H1499       H  0.93931151  0.77679532  0.36347727     0.05100
H1500       H  0.92179954  0.80223515  0.35137330    -0.00700
H1501       H  0.92118766  0.79682069  0.38161254     0.00800
H1502       H  0.01156431  0.88286515  0.38231578     0.04500
H1503       H  0.02798602  0.86692903  0.36027782     0.06400
H1504       H  0.03122981  0.85677142  0.38950927     0.07300
C1505       C  0.13089166  0.91364213  0.34999787    -0.22300
C1506       C  0.14067170  0.91934324  0.37137463     0.09600
C1507       C  0.13837529  0.90194757  0.38916606     0.10000
C1508       C  0.12666090  0.87883723  0.38501719    -0.17300
C1509       C  0.11702013  0.87281993  0.36347663    -0.27700
C1510       C  0.11918864  0.89063344  0.34570619     0.18400
C1511       C  0.15320979  0.94382582  0.37434105     0.12300
C1512       C  0.14852867  0.90772300  0.41238063    -0.12000
H1513       H  0.12522191  0.86530609  0.39863203     0.12600
C1514       C  0.11033232  0.88533764  0.32189321    -0.22900
H1515       H  0.13280459  0.92724586  0.33647561     0.08300
C1516       C  0.17836840  0.94737106  0.36795278     0.04600
C1517       C  0.18819092  0.97172585  0.36723672    -0.20100
C1518       C  0.17321103  0.99264389  0.37225667    -0.12400
C1519       C  0.14843676  0.98880796  0.38015303     0.13300
C1520       C  0.13882170  0.96438076  0.38113519    -0.22800
C1521       C  0.19451338  0.92552879  0.36108520    -0.05900
H1522       H  0.20716812  0.97451415  0.36130651     0.14800
C1523       C  0.13192371  0.01023449  0.38750250    -0.16100
H1524       H  0.11958030  0.96136378  0.38622565     0.09200
H1525       H  0.11954721  0.86816905  0.31532287     0.07000
H1526       H  0.11487134  0.90090739  0.31012436     0.08200
H1527       H  0.08971056  0.88297152  0.32167164     0.07300
H1528       H  0.13920539  0.92469378  0.41921187     0.02100
H1529       H  0.16898104  0.91112385  0.41138447     0.02600
H1530       H  0.14529171  0.89205363  0.42438778     0.06100
H1531       H  0.21376146  0.93155294  0.35659796     0.05100
H1532       H  0.18624736  0.91603417  0.34611767    -0.00700
H1533       H  0.19584636  0.91197571  0.37528930     0.00800
H1534       H  0.11419326  0.00345181  0.39512219     0.04500
H1535       H  0.12678366  0.02209029  0.37279319     0.06400
H1536       H  0.14177852  0.02169349  0.40042109     0.07300
C1537       C  0.96230600  0.82273893  0.61384170    -0.22300
C1538       C  0.96005226  0.84675959  0.60449931     0.09600
C1539       C  0.98181449  0.85936075  0.59719530     0.10000
C1540       C  0.00541609  0.84833604  0.60084323    -0.17300
C1541       C  0.00777696  0.82480735  0.61131124    -0.27700
C1542       C  0.98577790  0.81153825  0.61730500     0.18400
C1543       C  0.93530237  0.85952997  0.60586684     0.12300
C1544       C  0.98012642  0.88452353  0.58578190    -0.12000
H1545       H  0.02218581  0.85847699  0.59614982     0.12600
C1546       C  0.98607268  0.78634612  0.62880381    -0.22900
H1547       H  0.94562910  0.81316975  0.61967551     0.08300
C1548       C  0.91438755  0.85182000  0.59302396     0.04600
C1549       C  0.89077412  0.86250715  0.59739803    -0.20100
C1550       C  0.88740806  0.88053720  0.61455203    -0.12400
C1551       C  0.90862068  0.88824414  0.62736326     0.13300
C1552       C  0.93219214  0.87798685  0.62247023    -0.22800
C1553       C  0.91699831  0.83240081  0.57468674    -0.05900
H1554       H  0.87474408  0.85644242  0.58756519     0.14800
C1555       C  0.90717323  0.90570901  0.64744171    -0.16100
H1556       H  0.94820903  0.88344820  0.63263659     0.09200
H1557       H  0.97558124  0.77264888  0.61831216     0.07000
H1558       H  0.97690472  0.78783811  0.64561669     0.08200
H1559       H  0.00504755  0.77882003  0.63153012     0.07300
H1560       H  0.97184627  0.89851917  0.59745262     0.02100
H1561       H  0.96823486  0.88300550  0.57040096     0.02600
H1562       H  0.99883132  0.89145639  0.58055541     0.06100
H1563       H  0.89895822  0.82899052  0.56584926     0.05100
H1564       H  0.92337934  0.81437832  0.58204450    -0.00700
H1565       H  0.93084310  0.83883980  0.56196223     0.00800
H1566       H  0.91982286  0.89905594  0.66113896     0.04500
H1567       H  0.88839714  0.90647557  0.65522603     0.06400
H1568       H  0.91314311  0.92476524  0.64226563     0.07300
C1569       C  0.12616971  0.93029820  0.62023850    -0.22300
C1570       C  0.14643870  0.93257078  0.60543578     0.09600
C1571       C  0.15369956  0.91186118  0.59220001     0.10000
C1572       C  0.14130206  0.88883928  0.59502753    -0.17300
C1573       C  0.12182563  0.88600956  0.61090105    -0.27700
C1574       C  0.11375004  0.90741908  0.62322926     0.18400
C1575       C  0.16119791  0.95606743  0.60632836     0.12300
C1576       C  0.17472122  0.91402661  0.57537619    -0.12000
H1577       H  0.14749114  0.87274031  0.58536890     0.12600
C1578       C  0.09317245  0.90630907  0.64066405    -0.22900
H1579       H  0.12082494  0.94636158  0.63037046     0.08300
C1580       C  0.15169985  0.97883708  0.59776179     0.04600
C1581       C  0.16402819  0.00132144  0.60299735    -0.20100
C1582       C  0.18560287  0.00151278  0.61659410    -0.12400
C1583       C  0.19569361  0.97857259  0.62441755     0.13300
C1584       C  0.18341284  0.95613452  0.61901811    -0.22800
C1585       C  0.12835677  0.97941292  0.58345084    -0.05900
H1586       H  0.15635591  0.01894576  0.59706650     0.14800
C1587       C  0.21831439  0.97705253  0.63968409    -0.16100
H1588       H  0.19045099  0.93863941  0.62585595     0.09200
H1589       H  0.07532108  0.90073326  0.63246882     0.07000
H1590       H  0.08998809  0.92474371  0.64888288     0.08200
H1591       H  0.09819117  0.89278043  0.65421745     0.07300
H1592       H  0.19237154  0.91896107  0.58422934     0.02100
H1593       H  0.17021149  0.92883117  0.56280395     0.02600
H1594       H  0.17778728  0.89619837  0.56610063     0.06100
H1595       H  0.12379281  0.99870376  0.57774321     0.05100
H1596       H  0.11220747  0.97225061  0.59328338    -0.00700
H1597       H  0.13105701  0.96754327  0.56820908     0.00800
H1598       H  0.21304768  0.96789065  0.65587478     0.04500
H1599       H  0.22640843  0.99555411  0.64387139     0.06400
H1600       H  0.23305434  0.96567712  0.63134798     0.07300
C1601       C  0.06866907  0.78896462  0.46930787    -0.22300
C1602       C  0.09039075  0.78043895  0.48017782     0.09600
C1603       C  0.11068534  0.77158109  0.46726504     0.10000
C1604       C  0.10868578  0.77115572  0.44364962    -0.17300
C1605       C  0.08699695  0.77967849  0.43260892    -0.27700
C1606       C  0.06683498  0.78918519  0.44559528     0.18400
C1607       C  0.09201217  0.78173379  0.50510659     0.12300
C1608       C  0.13460070  0.76299463  0.47839302    -0.12000
H1609       H  0.12420051  0.76409531  0.43369922     0.12600
C1610       C  0.04379191  0.80092509  0.43527620    -0.22900
H1611       H  0.05333887  0.79617153  0.47940523     0.08300
C1612       C  0.09809734  0.80426530  0.51622003     0.04600
C1613       C  0.10077225  0.80431121  0.53982547    -0.20100
C1614       C  0.09758680  0.78232132  0.55256181    -0.12400
C1615       C  0.09204028  0.75955549  0.54123101     0.13300
C1616       C  0.08888518  0.75973013  0.51765579    -0.22800
C1617       C  0.10195834  0.82817408  0.50314232    -0.05900
H1618       H  0.10499490  0.82173805  0.54843485     0.14800
C1619       C  0.09048697  0.73454337  0.55302583    -0.16100
H1620       H  0.08469226  0.74239312  0.50887067     0.09200
H1621       H  0.04144230  0.82017492  0.44207093     0.07000
H1622       H  0.02706824  0.78970697  0.43983589     0.08200
H1623       H  0.04463154  0.80265956  0.41662542     0.07300
H1624       H  0.13077883  0.74681910  0.48966004     0.02100
H1625       H  0.14268032  0.77851762  0.48854685     0.02600
H1626       H  0.14876921  0.75707985  0.46573080     0.06100
H1627       H  0.10694308  0.84402560  0.51445621     0.05100
H1628       H  0.08452566  0.83321064  0.49396407    -0.00700
H1629       H  0.11734821  0.82565490  0.49074163     0.00800
H1630       H  0.07110163  0.72720958  0.55179321     0.04500
H1631       H  0.09611605  0.73518886  0.57105301     0.06400
H1632       H  0.10334406  0.72110359  0.54462566     0.07300
C1633       C  0.01458548  0.75215264  0.71611618    -0.22300
C1634       C  0.01953850  0.76666289  0.73534325     0.09600
C1635       C  0.03897417  0.78445002  0.73479640     0.10000
C1636       C  0.05181975  0.78862364  0.71448356    -0.17300
C1637       C  0.04564274  0.77559907  0.69449040    -0.27700
C1638       C  0.02743860  0.75622781  0.69567741     0.18400
C1639       C  0.00203285  0.76569757  0.75474878     0.12300
C1640       C  0.04537970  0.79988744  0.75538204    -0.12000
H1641       H  0.06620274  0.80290464  0.71408054     0.12600
C1642       C  0.02051342  0.74038911  0.67551526    -0.22900
H1643       H  0.99971609  0.73838914  0.71685368     0.08300
C1644       C  0.97926494  0.77901914  0.75392269     0.04600
C1645       C  0.96482301  0.78117097  0.77355983    -0.20100
C1646       C  0.97271200  0.77072667  0.79423009    -0.12400
C1647       C  0.99489385  0.75613096  0.79473442     0.13300
C1648       C  0.00925842  0.75375669  0.77487824    -0.22800
C1649       C  0.97079635  0.79209368  0.73259812    -0.05900
H1650       H  0.94772695  0.79209657  0.77299096     0.14800
C1651       C  0.00434297  0.74427183  0.81627050    -0.16100
H1652       H  0.02678253  0.74353960  0.77527966     0.09200
H1653       H  0.01309831  0.75239948  0.66178414     0.07000
H1654       H  0.00582454  0.72644723  0.67970659     0.08200
H1655       H  0.03715990  0.72990689  0.66949073     0.07300
H1656       H  0.05136697  0.78739704  0.76941062     0.02100
H1657       H  0.02877885  0.81084378  0.76081621     0.02600
H1658       H  0.06084703  0.81322708  0.75195245     0.06100
H1659       H  0.95281047  0.80215738  0.73506373     0.05100
H1660       H  0.96808546  0.77818632  0.71884988    -0.00700
H1661       H  0.98506966  0.80599302  0.72729513     0.00800
H1662       H  0.02231485  0.73424665  0.81360145     0.04500
H1663       H  0.99050671  0.73043435  0.82253576     0.06400
H1664       H  0.00750053  0.75889329  0.82933702     0.07300
C1665       C  0.16541109  0.85316736  0.71665711    -0.22300
C1666       C  0.16862668  0.83257556  0.73108030     0.09600
C1667       C  0.16315464  0.80825830  0.72324063     0.10000
C1668       C  0.15347356  0.80518821  0.70130380    -0.17300
C1669       C  0.14871201  0.82599771  0.68743588    -0.27700
C1670       C  0.15551943  0.85020101  0.69486926     0.18400
C1671       C  0.17473719  0.83761528  0.75503160     0.12300
C1672       C  0.16676420  0.78577470  0.73827904    -0.12000
H1673       H  0.14809419  0.78669204  0.69552798     0.12600
C1674       C  0.15225665  0.87326188  0.68039561    -0.22900
H1675       H  0.16973617  0.87181776  0.72278813     0.08300
C1676       C  0.19912648  0.84412557  0.76200923     0.04600
C1677       C  0.20288829  0.85325164  0.78405578    -0.20100
C1678       C  0.18265933  0.85625192  0.79889754    -0.12400
C1679       C  0.15852865  0.84823794  0.79233669     0.13300
C1680       C  0.15488636  0.83896475  0.77043586    -0.22800
C1681       C  0.22088407  0.84222486  0.74594899    -0.05900
H1682       H  0.22130594  0.85958517  0.78920446     0.14800
C1683       C  0.13613547  0.84994681  0.80779809    -0.16100
H1684       H  0.13618820  0.83385859  0.76497242     0.09200
H1685       H  0.17055693  0.88286831  0.67855390     0.07000
H1686       H  0.13884869  0.88626236  0.68863519     0.08200
H1687       H  0.14531937  0.86900030  0.66311410     0.07300
H1688       H  0.15473921  0.78743112  0.75351508     0.02100
H1689       H  0.18664708  0.78456076  0.74364165     0.02600
H1690       H  0.16179821  0.76811288  0.72941976     0.06100
H1691       H  0.23871312  0.84784493  0.75418662     0.05100
H1692       H  0.21776359  0.85463814  0.73113115    -0.00700
H1693       H  0.22283263  0.82259737  0.74000814     0.00800
H1694       H  0.12202562  0.86282602  0.80035406     0.04500
H1695       H  0.14095053  0.85677150  0.82499368     0.06400
H1696       H  0.12762393  0.83110997  0.80971246     0.07300
C1697       C  0.80036827  0.15478216  0.22370817    -0.22300
C1698       C  0.82423985  0.16288870  0.23025808     0.09600
C1699       C  0.84423566  0.16193395  0.21467588     0.10000
C1700       C  0.84013670  0.15179711  0.19316483    -0.17300
C1701       C  0.81674813  0.14209629  0.18711196    -0.27700
C1702       C  0.79635381  0.14422087  0.20223223     0.18400
C1703       C  0.82950934  0.16758427  0.25439917     0.12300
C1704       C  0.87037918  0.16974561  0.22132085    -0.12000
H1705       H  0.85571897  0.14974325  0.18156236     0.12600
C1706       C  0.77071762  0.13399415  0.19692041    -0.22900
H1707       H  0.78522067  0.15521870  0.23589442     0.08300
C1708       C  0.83311459  0.19196962  0.26292769     0.04600
C1709       C  0.84521101  0.19502557  0.28387275    -0.20100
C1710       C  0.85352597  0.17416341  0.29618859    -0.12400
C1711       C  0.84774737  0.14980191  0.28860385     0.13300
C1712       C  0.83562256  0.14679015  0.26777701    -0.22800
C1713       C  0.82484086  0.21457937  0.24964010    -0.05900
H1714       H  0.84941544  0.21364352  0.28997752     0.14800
C1715       C  0.85508521  0.12699549  0.30214422    -0.16100
H1716       H  0.83252669  0.12811888  0.26112726     0.09200
H1717       H  0.75671248  0.14930737  0.19805526     0.07000
H1718       H  0.76583566  0.11923215  0.20939634     0.08200
H1719       H  0.76935998  0.12572898  0.17975167     0.07300
H1720       H  0.87702021  0.15827141  0.23582003     0.02100
H1721       H  0.87060056  0.18977706  0.22623786     0.02600
H1722       H  0.88382964  0.16723985  0.20718278     0.06100
H1723       H  0.82905518  0.23224715  0.25880539     0.05100
H1724       H  0.80433221  0.21364515  0.24675166    -0.00700
H1725       H  0.83444824  0.21519689  0.23301721     0.00800
H1726       H  0.84860595  0.10943135  0.29395413     0.04500
H1727       H  0.87573815  0.12597707  0.30385237     0.06400
H1728       H  0.84659152  0.12803756  0.31925512     0.07300
C1729       C  0.96984920  0.21929370  0.25129393    -0.22300
C1730       C  0.99147029  0.23379081  0.25391646     0.09600
C1731       C  0.99669397  0.24499721  0.27501713     0.10000
C1732       C  0.98160343  0.23910073  0.29373652    -0.17300
C1733       C  0.96117465  0.22267393  0.29157824    -0.27700
C1734       C  0.95425520  0.21407903  0.26973314     0.18400
C1735       C  0.00990909  0.23359452  0.23527232     0.12300
C1736       C  0.01829943  0.26285243  0.27776290    -0.12000
H1737       H  0.98650756  0.24638298  0.31029004     0.12600
C1738       C  0.93054344  0.19963950  0.26511724    -0.22900
H1739       H  0.96553681  0.21131298  0.23485362     0.08300
C1740       C  0.02975040  0.21620624  0.23558730     0.04600
C1741       C  0.04461803  0.21340472  0.21633053    -0.20100
C1742       C  0.03961012  0.22663015  0.19620722    -0.12400
C1743       C  0.02014150  0.24471583  0.19614174     0.13300
C1744       C  0.00561614  0.24805347  0.21581357    -0.22800
C1745       C  0.03415476  0.19914985  0.25561305    -0.05900
H1746       H  0.05936405  0.19948782  0.21660696     0.14800
C1747       C  0.01349897  0.25941910  0.17520168    -0.16100
H1748       H  0.99004618  0.26107158  0.21568539     0.09200
H1749       H  0.93523608  0.18033607  0.25958231     0.07000
H1750       H  0.91983461  0.20905352  0.25140110     0.08200
H1751       H  0.91794874  0.19872925  0.27995252     0.07300
H1752       H  0.01561730  0.27910137  0.26628217     0.02100
H1753       H  0.03622478  0.25355600  0.27348751     0.02600
H1754       H  0.01970368  0.26998738  0.29538849     0.06100
H1755       H  0.05001859  0.18610981  0.25266460     0.05100
H1756       H  0.01717994  0.18772734  0.25880992    -0.00700
H1757       H  0.03854065  0.21023495  0.27096901     0.00800
H1758       H  0.00823381  0.24644236  0.16129582     0.04500
H1759       H  0.02968063  0.27104081  0.16993675     0.06400
H1760       H  0.99742882  0.27219683  0.17817581     0.07300
C1761       C  0.02154543  0.12781365  0.38092578    -0.22300
C1762       C  0.04274321  0.14179552  0.37505727     0.09600
C1763       C  0.03986353  0.16678005  0.36774332     0.10000
C1764       C  0.01574323  0.17694419  0.36565318    -0.17300
C1765       C  0.99431447  0.16247546  0.36999173    -0.27700
C1766       C  0.99730936  0.13777620  0.37841448     0.18400
C1767       C  0.06727244  0.12891056  0.37333125     0.12300
C1768       C  0.06219265  0.18233001  0.36108638    -0.12000
H1769       H  0.01360063  0.19584107  0.35924504     0.12600
C1770       C  0.97517281  0.12181138  0.38482146    -0.22900
H1771       H  0.02396154  0.10863646  0.38652256     0.08300
C1772       C  0.08497112  0.12884913  0.39105471     0.04600
C1773       C  0.10858065  0.11780802  0.38749193    -0.20100
C1774       C  0.11490960  0.10679364  0.36656666    -0.12400
C1775       C  0.09670213  0.10662960  0.34895039     0.13300
C1776       C  0.07317967  0.11749702  0.35271796    -0.22800
C1777       C  0.07898655  0.14061103  0.41357481    -0.05900
H1778       H  0.12228981  0.11811697  0.40103520     0.14800
C1779       C  0.10208496  0.09642285  0.32563590    -0.16100
H1780       H  0.05941914  0.11780877  0.33919912     0.09200
H1781       H  0.96334206  0.13194231  0.39726034     0.07000
H1782       H  0.98112344  0.10385539  0.39265869     0.08200
H1783       H  0.96392487  0.11713837  0.36959992     0.07300
H1784       H  0.07222358  0.17322961  0.34683857     0.02100
H1785       H  0.07513456  0.18422071  0.37569410     0.02600
H1786       H  0.05663105  0.20142849  0.35557935     0.06100
H1787       H  0.09486946  0.13893830  0.42563940     0.05100
H1788       H  0.06248310  0.13119002  0.42112710    -0.00700
H1789       H  0.07472902  0.16079205  0.41130894     0.00800
H1790       H  0.10577510  0.07600022  0.32655572     0.04500
H1791       H  0.11843670  0.10629983  0.31830324     0.06400
H1792       H  0.08607359  0.09915073  0.31386674     0.07300
C1793       C  0.84073709  0.08483762  0.37567768    -0.22300
C1794       C  0.85740765  0.06473158  0.37748728     0.09600
C1795       C  0.88336826  0.06946185  0.37842939     0.10000
C1796       C  0.89210441  0.09413417  0.37613332    -0.17300
C1797       C  0.87549616  0.11422121  0.37282216    -0.27700
C1798       C  0.84929537  0.10948732  0.37301632     0.18400
C1799       C  0.84749959  0.03903724  0.37416856     0.12300
C1800       C  0.90184566  0.04840372  0.38144950    -0.12000
H1801       H  0.91207775  0.09766887  0.37610420     0.12600
C1802       C  0.82952849  0.12914821  0.36863489    -0.22900
H1803       H  0.82083325  0.08104953  0.37460857     0.08300
C1804       C  0.83307701  0.02646722  0.39063560     0.04600
C1805       C  0.82328943  0.00260744  0.38566118    -0.20100
C1806       C  0.82765631  0.99112592  0.36459950    -0.12400
C1807       C  0.84159174  0.00419363  0.34794021     0.13300
C1808       C  0.85132390  0.02786458  0.35301858    -0.22800
C1809       C  0.82817960  0.03813943  0.41340381    -0.05900
H1810       H  0.81224862  0.99286918  0.39825719     0.14800
C1811       C  0.84528769  0.99399843  0.32432616    -0.16100
H1812       H  0.86173209  0.03802526  0.34022607     0.09200
H1813       H  0.81763329  0.13122786  0.38392052     0.07000
H1814       H  0.81749671  0.12309601  0.35429040     0.08200
H1815       H  0.83688889  0.14772827  0.36400702     0.07300
H1816       H  0.90068701  0.03522102  0.36696898     0.02100
H1817       H  0.89766428  0.03817727  0.39737183     0.02600
H1818       H  0.92137193  0.05542033  0.38244893     0.06100
H1819       H  0.81701679  0.02558377  0.42446108     0.05100
H1820       H  0.81762674  0.05588706  0.41127433    -0.00700
H1821       H  0.84622297  0.04210163  0.42202387     0.00800
H1822       H  0.85490820  0.00766319  0.31315382     0.04500
H1823       H  0.82685933  0.98964384  0.31654861     0.06400
H1824       H  0.85703495  0.97688029  0.32485738     0.07300
C1825       C  0.03261791  0.12965859  0.60176471    -0.22300
C1826       C  0.05363219  0.14494219  0.60480399     0.09600
C1827       C  0.05045316  0.17101767  0.60743017     0.10000
C1828       C  0.02616034  0.18097845  0.60881989    -0.17300
C1829       C  0.00508088  0.16533124  0.60793879    -0.27700
C1830       C  0.00834857  0.13954741  0.60308172     0.18400
C1831       C  0.07831968  0.13293941  0.60851277     0.12300
C1832       C  0.07269356  0.18805457  0.61013976    -0.12000
H1833       H  0.02370410  0.20073521  0.61240770     0.12600
C1834       C  0.98668985  0.12190811  0.59948982    -0.22900
H1835       H  0.03516024  0.10968763  0.59935831     0.08300
C1836       C  0.08456673  0.12304886  0.62995659     0.04600
C1837       C  0.10841919  0.11291011  0.63347275    -0.20100
C1838       C  0.12641113  0.11274804  0.61619939    -0.12400
C1839       C  0.11993260  0.12198416  0.59445810     0.13300
C1840       C  0.09591120  0.13208502  0.59092671    -0.22800
C1841       C  0.06634340  0.12400587  0.64940747    -0.05900
H1842       H  0.11343738  0.10606097  0.65016762     0.14800
C1843       C  0.13755725  0.12098435  0.57457259    -0.16100
H1844       H  0.09092210  0.13947933  0.57442308     0.09200
H1845       H  0.98642763  0.10765727  0.61318124     0.07000
H1846       H  0.98888605  0.11225642  0.58295120     0.08200
H1847       H  0.96836401  0.13162206  0.59905849     0.07300
H1848       H  0.08471758  0.18682009  0.59486792     0.02100
H1849       H  0.08373516  0.18242010  0.62525470     0.02600
H1850       H  0.06693812  0.20789393  0.61232239     0.06100
H1851       H  0.07446208  0.11597112  0.66514384     0.05100
H1852       H  0.04929050  0.11314543  0.64512346    -0.00700
H1853       H  0.06106106  0.14373890  0.65291568     0.00800
H1854       H  0.12853570  0.11065407  0.56042781     0.04500
H1855       H  0.15535636  0.11124172  0.57846625     0.06400
H1856       H  0.14187389  0.14029492  0.56883315     0.07300
C1857       C  0.88559019  0.06532068  0.62235255    -0.22300
C1858       C  0.86719641  0.06352453  0.60550813     0.09600
C1859       C  0.86159031  0.08450830  0.59195722     0.10000
C1860       C  0.87395818  0.10720101  0.59616861    -0.17300
C1861       C  0.89180872  0.10932770  0.61360023    -0.27700
C1862       C  0.89812127  0.08786575  0.62653874     0.18400
C1863       C  0.85277156  0.03997096  0.60408256     0.12300
C1864       C  0.84248240  0.08299424  0.57323609    -0.12000
H1865       H  0.86918652  0.12355765  0.58618353     0.12600
C1866       C  0.91696517  0.08870750  0.64558334    -0.22900
H1867       H  0.88954398  0.04909407  0.63280858     0.08300
C1868       C  0.86406321  0.01742494  0.59701454     0.04600
C1869       C  0.85153004  0.99474862  0.60065904    -0.20100
C1870       C  0.82799706  0.99418598  0.61113148    -0.12400
C1871       C  0.81600997  0.01693710  0.61694903     0.13300
C1872       C  0.82858817  0.03957368  0.61322564    -0.22800
C1873       C  0.88952262  0.01727066  0.58610354    -0.05900
H1874       H  0.86059285  0.97725536  0.59621755     0.14800
C1875       C  0.79091781  0.01814756  0.62857628    -0.16100
H1876       H  0.82010862  0.05695216  0.61884136     0.09200
H1877       H  0.93572201  0.09344034  0.63878775     0.07000
H1878       H  0.91860655  0.07038729  0.65437168     0.08200
H1879       H  0.91126708  0.10285029  0.65835180     0.07300
H1880       H  0.82383926  0.07838500  0.58032366     0.02100
H1881       H  0.84803924  0.06825211  0.56097327     0.02600
H1882       H  0.84081996  0.10099481  0.56392688     0.06100
H1883       H  0.89525674  0.99808287  0.58103162     0.05100
H1884       H  0.90379941  0.02456190  0.59805074    -0.00700
H1885       H  0.88919099  0.02918725  0.57069550     0.00800
H1886       H  0.79298386  0.02770134  0.64518246     0.04500
H1887       H  0.78253756  0.99956540  0.63180269     0.06400
H1888       H  0.77765271  0.02903366  0.61793546     0.07300
C1889       C  0.90783478  0.18771411  0.51528228    -0.22300
C1890       C  0.91222636  0.21074660  0.50471264     0.09600
C1891       C  0.91697777  0.23221340  0.51788626     0.10000
C1892       C  0.91748396  0.23011701  0.54154646    -0.17300
C1893       C  0.91294056  0.20710580  0.55229055    -0.27700
C1894       C  0.90804984  0.18556052  0.53895742     0.18400
C1895       C  0.91182487  0.21187548  0.47973962     0.12300
C1896       C  0.92159938  0.25724746  0.50693044    -0.12000
H1897       H  0.92112583  0.24661154  0.55173506     0.12600
C1898       C  0.90383910  0.16013117  0.54941329    -0.22900
H1899       H  0.90426733  0.17135579  0.50488973     0.08300
C1900       C  0.93295880  0.20521553  0.46685354     0.04600
C1901       C  0.93146862  0.20587829  0.44316435    -0.20100
C1902       C  0.90921895  0.21280680  0.43208172    -0.12400
C1903       C  0.88816956  0.22005394  0.44515967     0.13300
C1904       C  0.88980737  0.21944508  0.46886730    -0.22800
C1905       C  0.95701591  0.19736506  0.47814210    -0.05900
H1906       H  0.94761817  0.20038544  0.43324739     0.14800
C1907       C  0.86416891  0.22908284  0.43442421    -0.16100
H1908       H  0.87378983  0.22474445  0.47904752     0.09200
H1909       H  0.91987998  0.15515295  0.56051992     0.07000
H1910       H  0.90201186  0.14528676  0.53633672     0.08200
H1911       H  0.88630187  0.16015532  0.55942887     0.07300
H1912       H  0.90499158  0.26285153  0.49680686     0.02100
H1913       H  0.93813599  0.25603020  0.49563272     0.02600
H1914       H  0.92518978  0.27209077  0.51970147     0.06100
H1915       H  0.97181743  0.19298495  0.46556643     0.05100
H1916       H  0.95379596  0.18038325  0.48857303    -0.00700
H1917       H  0.96391389  0.21270304  0.48919543     0.00800
H1918       H  0.85502845  0.21361216  0.42500974     0.04500
H1919       H  0.86814372  0.24488598  0.42274926     0.06400
H1920       H  0.85060635  0.23579657  0.44730517     0.07300
C1921       C  0.01101790  0.24204706  0.77084136    -0.22300
C1922       C  0.01923948  0.23059675  0.75083145     0.09600
C1923       C  0.04223977  0.21761610  0.75072992     0.10000
C1924       C  0.05551776  0.21482802  0.77103490    -0.17300
C1925       C  0.04611730  0.22405034  0.79167849    -0.27700
C1926       C  0.02395136  0.23873528  0.79138195     0.18400
C1927       C  0.00200237  0.22911415  0.73115477     0.12300
C1928       C  0.05212858  0.20535514  0.72953300    -0.12000
H1929       H  0.07276173  0.20412458  0.77093544     0.12600
C1930       C  0.01283771  0.24974136  0.81261683    -0.22900
H1931       H  0.99350022  0.25228887  0.77062280     0.08300
C1932       C  0.98086415  0.21331930  0.73182505     0.04600
C1933       C  0.96712799  0.20922052  0.71197754    -0.20100
C1934       C  0.97433846  0.21977359  0.69114048    -0.12400
C1935       C  0.99499623  0.23645939  0.69071434     0.13300
C1936       C  0.00829268  0.24117984  0.71085994    -0.22800
C1937       C  0.97350139  0.19960167  0.75315241    -0.05900
H1938       H  0.95116391  0.19673747  0.71261216     0.14800
C1939       C  0.00414774  0.24825203  0.66907578    -0.16100
H1940       H  0.02448603  0.25337482  0.71058145     0.09200
H1941       H  0.00816140  0.23457611  0.82475542     0.07000
H1942       H  0.99534526  0.26028326  0.80905566     0.08200
H1943       H  0.02629994  0.26298822  0.82045573     0.07300
H1944       H  0.05588329  0.21976545  0.71644641     0.02100
H1945       H  0.03824348  0.19172156  0.72293142     0.02600
H1946       H  0.06989987  0.19513261  0.73272447     0.06100
H1947       H  0.95716461  0.18713465  0.75034490     0.05100
H1948       H  0.96832567  0.21318741  0.76655866    -0.00700
H1949       H  0.98933109  0.18784950  0.75915343     0.00800
H1950       H  0.02100240  0.25999436  0.67193468     0.04500
H1951       H  0.98937683  0.26050939  0.66185334     0.06400
H1952       H  0.00922530  0.23344683  0.65669510     0.07300
C1953       C  0.85129816  0.14490838  0.71915264    -0.22300
C1954       C  0.84880301  0.16538390  0.73378712     0.09600
C1955       C  0.85540842  0.18956613  0.72635478     0.10000
C1956       C  0.86542678  0.19255988  0.70454930    -0.17300
C1957       C  0.86921388  0.17178851  0.69039833    -0.27700
C1958       C  0.86131527  0.14779061  0.69747207     0.18400
C1959       C  0.84171893  0.16010864  0.75743220     0.12300
C1960       C  0.85235976  0.21195685  0.74158224    -0.12000
H1961       H  0.87149312  0.21091445  0.69897273     0.12600
C1962       C  0.86323759  0.12484593  0.68266522    -0.22900
H1963       H  0.84604383  0.12637813  0.72496660     0.08300
C1964       C  0.81696423  0.15375729  0.76331173     0.04600
C1965       C  0.81227661  0.14321875  0.78463601    -0.20100
C1966       C  0.83190202  0.13873036  0.79986344    -0.12400
C1967       C  0.85639009  0.14674957  0.79459927     0.13300
C1968       C  0.86098603  0.15740886  0.77336971    -0.22800
C1969       C  0.79576061  0.15728996  0.74679551    -0.05900
H1970       H  0.79355553  0.13703631  0.78886500     0.14800
C1971       C  0.87814343  0.14362159  0.81068326    -0.16100
H1972       H  0.87997685  0.16236830  0.76874292     0.09200
H1973       H  0.84444072  0.11624572  0.68078490     0.07000
H1974       H  0.87600588  0.11101422  0.69067136     0.08200
H1975       H  0.87018509  0.12901084  0.66540254     0.07300
H1976       H  0.86394654  0.20959336  0.75705667     0.02100
H1977       H  0.83241815  0.21389350  0.74652038     0.02600
H1978       H  0.85823153  0.22952322  0.73304589     0.06100
H1979       H  0.77754237  0.15165736  0.75423931     0.05100
H1980       H  0.79897652  0.14577281  0.73142804    -0.00700
H1981       H  0.79450856  0.17731490  0.74187090     0.00800
H1982       H  0.89244611  0.13123791  0.80291133     0.04500
H1983       H  0.87261757  0.13546554  0.82719849     0.06400
H1984       H  0.88670295  0.16218127  0.81410777     0.07300
C1985       C  0.31733766  0.16118206  0.61403701    -0.22300
C1986       C  0.33255910  0.15972379  0.63333042     0.09600
C1987       C  0.32698699  0.14191440  0.65029398     0.10000
C1988       C  0.30573915  0.12652586  0.64787444    -0.17300
C1989       C  0.28976548  0.12896777  0.62907976    -0.27700
C1990       C  0.29604647  0.14608119  0.61167162     0.18400
C1991       C  0.35236293  0.17900521  0.63618384     0.12300
C1992       C  0.34336105  0.13928741  0.67093626    -0.12000
H1993       H  0.30103979  0.11326390  0.66109120     0.12600
C1994       C  0.28046853  0.14840638  0.59043184    -0.22900
H1995       H  0.32168275  0.17489937  0.60109325     0.08300
C1996       C  0.37396535  0.17958348  0.62244159     0.04600
C1997       C  0.38958333  0.20078609  0.62293883    -0.20100
C1998       C  0.38402901  0.22141459  0.63685272    -0.12400
C1999       C  0.36365823  0.21966389  0.65214420     0.13300
C2000       C  0.34783713  0.19877233  0.65121712    -0.22800
C2001       C  0.38022147  0.15808472  0.60694862    -0.05900
H2002       H  0.40531159  0.20185499  0.61141477     0.14800
C2003       C  0.35800450  0.23935892  0.66972024    -0.16100
H2004       H  0.33140975  0.19819412  0.66196387     0.09200
H2005       H  0.27869953  0.12981743  0.58215707     0.07000
H2006       H  0.28904023  0.16147711  0.57804553     0.08200
H2007       H  0.26160003  0.15573603  0.59455142     0.07300
H2008       H  0.34340434  0.15700131  0.68074811     0.02100
H2009       H  0.36278133  0.13479197  0.66566151     0.02600
H2010       H  0.33669578  0.12411491  0.68228047     0.06100
H2011       H  0.39804736  0.16130810  0.59776140     0.05100
H2012       H  0.36518894  0.15554216  0.59417944    -0.00700
H2013       H  0.38219466  0.14064795  0.61703888     0.00800
H2014       H  0.34001391  0.24873357  0.66559293     0.04500
H2015       H  0.37293227  0.25362988  0.67125249     0.06400
H2016       H  0.35635435  0.23036239  0.68661041     0.07300
C2017       C  0.36083231  0.17105175  0.37038545    -0.22300
C2018       C  0.33906681  0.17255675  0.35717340     0.09600
C2019       C  0.33485358  0.19390224  0.34366425     0.10000
C2020       C  0.35205711  0.21367655  0.34429344    -0.17300
C2021       C  0.37319693  0.21302590  0.35851638    -0.27700
C2022       C  0.37790098  0.19108998  0.37148178     0.18400
C2023       C  0.31916238  0.15349833  0.36008489     0.12300
C2024       C  0.31160226  0.19629253  0.32932633    -0.12000
H2025       H  0.34839849  0.23031059  0.33428390     0.12600
C2026       C  0.39943805  0.18846888  0.38785765    -0.22900
H2027       H  0.36379337  0.15468133  0.38092151     0.08300
C2028       C  0.31680371  0.13256125  0.34565897     0.04600
C2029       C  0.29572598  0.11691186  0.34768542    -0.20100
C2030       C  0.27708567  0.12189695  0.36381166    -0.12400
C2031       C  0.28039164  0.14199605  0.37918553     0.13300
C2032       C  0.30124607  0.15764582  0.37694265    -0.22800
C2033       C  0.33629977  0.12705658  0.32798840    -0.05900
H2034       H  0.29333261  0.10131417  0.33613876     0.14800
C2035       C  0.26254550  0.14733688  0.39837260    -0.16100
H2036       H  0.30336168  0.17352490  0.38824037     0.09200
H2037       H  0.41154538  0.17264775  0.38248833     0.07000
H2038       H  0.39205984  0.18439907  0.40503947     0.08200
H2039       H  0.41118642  0.20536664  0.38935145     0.07300
H2040       H  0.29473380  0.19549354  0.34024554     0.02100
H2041       H  0.31083490  0.18079958  0.31682852     0.02600
H2042       H  0.31115685  0.21426682  0.31987128     0.06100
H2043       H  0.33165675  0.10996566  0.31812896     0.05100
H2044       H  0.35470913  0.12411067  0.33631612    -0.00700
H2045       H  0.33776812  0.14298848  0.31600445     0.00800
H2046       H  0.27300660  0.14732834  0.41464398     0.04500
H2047       H  0.24747432  0.13323913  0.39997105     0.06400
H2048       H  0.25387437  0.16604034  0.39590830     0.07300
C2049       C  0.40869778  0.30081894  0.47075113    -0.22300
C2050       C  0.41618908  0.27900137  0.48198124     0.09600
C2051       C  0.42322770  0.25767384  0.46947489     0.10000
C2052       C  0.42222852  0.25854181  0.44577169    -0.17300
C2053       C  0.41440236  0.28028757  0.43441025    -0.27700
C2054       C  0.40817336  0.30197547  0.44707030     0.18400
C2055       C  0.41690301  0.27915121  0.50692411     0.12300
C2056       C  0.43166091  0.23405540  0.48116947    -0.12000
H2057       H  0.42716183  0.24203383  0.43606243     0.12600
C2058       C  0.40203607  0.32694815  0.43642503    -0.22900
H2059       H  0.40377951  0.31725908  0.48057425     0.08300
C2060       C  0.43812660  0.28768449  0.51876569     0.04600
C2061       C  0.43771969  0.28802760  0.54247174    -0.20100
C2062       C  0.41656626  0.28000973  0.55458214    -0.12400
C2063       C  0.39554123  0.27068463  0.54256515     0.13300
C2064       C  0.39588280  0.27083578  0.51882820    -0.22800
C2065       C  0.46106614  0.29660104  0.50635931    -0.05900
H2066       H  0.45385768  0.29508099  0.55160495     0.14800
C2067       C  0.37291499  0.25943060  0.55390374    -0.16100
H2068       H  0.37978548  0.26399496  0.50949309     0.09200
H2069       H  0.41447271  0.34156062  0.44366457     0.07000
H2070       H  0.38231873  0.33199586  0.44017600     0.08200
H2071       H  0.40489639  0.32740192  0.41788209     0.07300
H2072       H  0.41646384  0.22693450  0.49221522     0.02100
H2073       H  0.44844947  0.23795811  0.49167953     0.02600
H2074       H  0.43654492  0.21913440  0.46883671     0.06100
H2075       H  0.47604479  0.30260061  0.51823499     0.05100
H2076       H  0.45617570  0.31278646  0.49541181    -0.00700
H2077       H  0.46859966  0.28126983  0.49565954     0.00800
H2078       H  0.35627354  0.27132682  0.55053334     0.04500
H2079       H  0.37509342  0.25700840  0.57240473     0.06400
H2080       H  0.36944328  0.24047231  0.54684149     0.07300
C2081       C  0.19055568  0.64501769  0.65333824    -0.22300
C2082       C  0.18449642  0.65980178  0.63446701     0.09600
C2083       C  0.19827396  0.65710272  0.61426119     0.10000
C2084       C  0.21816008  0.64005364  0.61353386    -0.17300
C2085       C  0.22510938  0.62606718  0.63267268    -0.27700
C2086       C  0.21088732  0.62827636  0.65281661     0.18400
C2087       C  0.16637112  0.68059706  0.63697297     0.12300
C2088       C  0.19294447  0.67324540  0.59384744    -0.12000
H2089       H  0.22916653  0.63846126  0.59818297     0.12600
C2090       C  0.21745745  0.61479451  0.67447264    -0.22900
H2091       H  0.18017940  0.64753177  0.66893918     0.08300
C2092       C  0.14150313  0.67893651  0.62910349     0.04600
C2093       C  0.12669141  0.70072450  0.62824481    -0.20100
C2094       C  0.13620266  0.72396295  0.63541650    -0.12400
C2095       C  0.16029629  0.72483286  0.64554500     0.13300
C2096       C  0.17522084  0.70328363  0.64566775    -0.22800
C2097       C  0.13082837  0.65429331  0.62138082    -0.05900
H2098       H  0.10806246  0.69980336  0.62101401     0.14800
C2099       C  0.17081059  0.74790616  0.65677141    -0.16100
H2100       H  0.19413964  0.70427184  0.65229695     0.09200
H2101       H  0.20156772  0.60269656  0.67960724     0.07000
H2102       H  0.22098392  0.62871870  0.68807676     0.08200
H2103       H  0.23434845  0.60292366  0.67312821     0.07300
H2104       H  0.19534570  0.69328908  0.59832739     0.02100
H2105       H  0.17351355  0.67016841  0.58787194     0.02600
H2106       H  0.20577412  0.66893643  0.57958856     0.06100
H2107       H  0.11104202  0.65621495  0.61587115     0.05100
H2108       H  0.13155059  0.64064881  0.63555765    -0.00700
H2109       H  0.14177770  0.64679587  0.60695521     0.00800
H2110       H  0.17714805  0.74315379  0.67417946     0.04500
H2111       H  0.15685568  0.76303983  0.65860068     0.06400
H2112       H  0.18705247  0.75493026  0.64695577     0.07300
C2113       C  0.34331461  0.46804616  0.60032048    -0.22300
C2114       C  0.35381036  0.45448682  0.61830669     0.09600
C2115       C  0.35438949  0.46499995  0.64019073     0.10000
C2116       C  0.34443378  0.48892942  0.64362832    -0.17300
C2117       C  0.33389285  0.50272081  0.62572063    -0.27700
C2118       C  0.33359709  0.49224200  0.60364139     0.18400
C2119       C  0.36469175  0.42945619  0.61411048     0.12300
C2120       C  0.36531071  0.45083713  0.65997927    -0.12000
H2121       H  0.34461386  0.49683426  0.66054586     0.12600
C2122       C  0.32439892  0.50620991  0.58304191    -0.22900
H2123       H  0.34320904  0.45990181  0.58349788     0.08300
C2124       C  0.34987808  0.40765921  0.61481222     0.04600
C2125       C  0.36159578  0.38413527  0.61443152    -0.20100
C2126       C  0.38780387  0.38200203  0.61367245    -0.12400
C2127       C  0.40238985  0.40392820  0.61118994     0.13300
C2128       C  0.39066077  0.42739671  0.61166461    -0.22800
C2129       C  0.32186716  0.40929039  0.61711295    -0.05900
H2130       H  0.35031855  0.36740506  0.61630539     0.14800
C2131       C  0.43024132  0.40319427  0.60783819    -0.16100
H2132       H  0.40191493  0.44425154  0.61075764     0.09200
H2133       H  0.30782994  0.49648850  0.57587250     0.07000
H2134       H  0.33939391  0.50656670  0.57004868     0.08200
H2135       H  0.31935160  0.52592597  0.58650877     0.07300
H2136       H  0.38537751  0.44678944  0.65683720     0.02100
H2137       H  0.35509737  0.43293217  0.66231272     0.02600
H2138       H  0.36394397  0.46167481  0.67598668     0.06100
H2139       H  0.31309822  0.39045561  0.61767306     0.05100
H2140       H  0.31392961  0.41960405  0.60243754    -0.00700
H2141       H  0.31697088  0.41931871  0.63297350     0.00800
H2142       H  0.43526192  0.41404829  0.59246260     0.04500
H2143       H  0.43707056  0.38388637  0.60518540     0.06400
H2144       H  0.43980293  0.41152903  0.62274585     0.07300
C2145       C  0.19489344  0.65296647  0.34124756    -0.22300
C2146       C  0.17570297  0.64855341  0.35685825     0.09600
C2147       C  0.17710094  0.62756091  0.37129027     0.10000
C2148       C  0.19881724  0.61267786  0.37115026    -0.17300
C2149       C  0.21906597  0.61842814  0.35688193    -0.27700
C2150       C  0.21641406  0.63796570  0.34081825     0.18400
C2151       C  0.15658078  0.66833897  0.35993377     0.12300
C2152       C  0.15603430  0.62140971  0.38725227    -0.12000
H2153       H  0.20057451  0.59743338  0.38317009     0.12600
C2154       C  0.23578782  0.64353546  0.32298201    -0.22900
H2155       H  0.19349359  0.66885948  0.32987761     0.08300
C2156       C  0.16080220  0.68783253  0.37558038     0.04600
C2157       C  0.14440252  0.70822724  0.37610597    -0.20100
C2158       C  0.12407677  0.71000383  0.36109699    -0.12400
C2159       C  0.11943577  0.69016942  0.34570305     0.13300
C2160       C  0.13573861  0.66942621  0.34546892    -0.22800
C2161       C  0.18328909  0.68770185  0.39107084    -0.05900
H2162       H  0.14795501  0.72340513  0.38788529     0.14800
C2163       C  0.09864565  0.69080553  0.32842986    -0.16100
H2164       H  0.13282376  0.65454912  0.33325439     0.09200
H2165       H  0.24399732  0.66232534  0.32603332     0.07000
H2166       H  0.22677988  0.64342212  0.30601514     0.08200
H2167       H  0.25103087  0.62948746  0.32245355     0.07300
H2168       H  0.13864102  0.61809369  0.37739592     0.02100
H2169       H  0.15285370  0.63713413  0.39918108     0.02600
H2170       H  0.16010801  0.60433318  0.39734789     0.06100
H2171       H  0.18389647  0.70459956  0.40202275     0.05100
H2172       H  0.20071703  0.68727701  0.38087761    -0.00700
H2173       H  0.18279237  0.67102362  0.40224913     0.00800
H2174       H  0.10669409  0.68907696  0.31117157     0.04500
H2175       H  0.08756287  0.70829783  0.32883445     0.06400
H2176       H  0.08577725  0.67483615  0.33138990     0.07300
C2177       C  0.32834920  0.44926050  0.37228621    -0.22300
C2178       C  0.35080337  0.44759840  0.38441564     0.09600
C2179       C  0.36078359  0.46920023  0.39473172     0.10000
C2180       C  0.34854134  0.49230625  0.39180549    -0.17300
C2181       C  0.32670790  0.49428159  0.37857218    -0.27700
C2182       C  0.31639343  0.47230032  0.36879236     0.18400
C2183       C  0.36501619  0.42381602  0.38285588     0.12300
C2184       C  0.38460919  0.46790410  0.40830721    -0.12000
H2185       H  0.35657560  0.50909188  0.39913406     0.12600
C2186       C  0.29419586  0.47231657  0.35296047    -0.22900
H2187       H  0.32100332  0.43262015  0.36411065     0.08300
C2188       C  0.35895099  0.40276944  0.39607789     0.04600
C2189       C  0.36964003  0.37943732  0.39078134    -0.20100
C2190       C  0.38600836  0.37648307  0.37223291    -0.12400
C2191       C  0.39307539  0.39821443  0.35978324     0.13300
C2192       C  0.38251198  0.42147561  0.36540122    -0.22800
C2193       C  0.34077447  0.40489949  0.41543129    -0.05900
H2194       H  0.36442536  0.36325793  0.40078188     0.14800
C2195       C  0.41078305  0.39733911  0.33991632    -0.16100
H2196       H  0.38695278  0.43786757  0.35534135     0.09200
H2197       H  0.27885110  0.46103911  0.36043713     0.07000
H2198       H  0.29966060  0.46380065  0.33652963     0.08200
H2199       H  0.28690165  0.49114501  0.34909329     0.07300
H2200       H  0.40019589  0.46136590  0.39740229     0.02100
H2201       H  0.38221759  0.45463368  0.42261367     0.02600
H2202       H  0.38977964  0.48646690  0.41538118     0.06100
H2203       H  0.33817762  0.38670410  0.42422343     0.05100
H2204       H  0.32226912  0.41120351  0.40904079    -0.00700
H2205       H  0.34786107  0.41869422  0.42795631     0.00800
H2206       H  0.41384028  0.41616332  0.33241594     0.04500
H2207       H  0.40297441  0.38522692  0.32635803     0.06400
H2208       H  0.42931507  0.39020316  0.34548326     0.07300
C2209       C  0.27436564  0.60429049  0.47527961    -0.22300
C2210       C  0.28304805  0.58280533  0.48636015     0.09600
C2211       C  0.28873614  0.56112741  0.47381115     0.10000
C2212       C  0.28663853  0.56177318  0.45015985    -0.17300
C2213       C  0.27877264  0.58356562  0.43883430    -0.27700
C2214       C  0.27163081  0.60484367  0.45167578     0.18400
C2215       C  0.28562893  0.58336056  0.51122711     0.12300
C2216       C  0.29738317  0.53750981  0.48538367    -0.12000
H2217       H  0.29194863  0.54540362  0.44042444     0.12600
C2218       C  0.26022526  0.62805663  0.44136501    -0.22900
H2219       H  0.26938221  0.62064996  0.48518588     0.08300
C2220       C  0.30769350  0.59196254  0.52170715     0.04600
C2221       C  0.30893843  0.59288871  0.54541059    -0.20100
C2222       C  0.28863006  0.58528546  0.55886607    -0.12400
C2223       C  0.26654111  0.57637562  0.54814842     0.13300
C2224       C  0.26539341  0.57561592  0.52443210    -0.22800
C2225       C  0.32982644  0.60023223  0.50783617    -0.05900
H2226       H  0.32589703  0.59958204  0.55347209     0.14800
C2227       C  0.24373384  0.56845328  0.56133992    -0.16100
H2228       H  0.24854070  0.56911037  0.51605430     0.09200
H2229       H  0.27317077  0.64411742  0.44359185     0.07000
H2230       H  0.24234203  0.63239577  0.45008415     0.08200
H2231       H  0.25564055  0.62598788  0.42317440     0.07300
H2232       H  0.28273233  0.53089462  0.49726369     0.02100
H2233       H  0.31486307  0.54119914  0.49499226     0.02600
H2234       H  0.30116764  0.52229052  0.47303210     0.06100
H2235       H  0.34565980  0.60635501  0.51870684     0.05100
H2236       H  0.32437105  0.61617154  0.49680954    -0.00700
H2237       H  0.33641791  0.58450764  0.49709045     0.00800
H2238       H  0.22783854  0.56362724  0.55001155     0.04500
H2239       H  0.23753695  0.58393693  0.57256957     0.06400
H2240       H  0.24803038  0.55154920  0.57156346     0.07300
C2241       C  0.65675839  0.80830800  0.61074801    -0.22300
C2242       C  0.65891193  0.82194178  0.63087082     0.09600
C2243       C  0.64295806  0.81642219  0.64923653     0.10000
C2244       C  0.62686807  0.79561103  0.64780062    -0.17300
C2245       C  0.62652654  0.78048315  0.62834428    -0.27700
C2246       C  0.64060519  0.78781519  0.60913519     0.18400
C2247       C  0.68032128  0.83936964  0.63292495     0.12300
C2248       C  0.64340709  0.83212240  0.67040764    -0.12000
H2249       H  0.61576059  0.79025835  0.66235672     0.12600
C2250       C  0.63941169  0.77421724  0.58676077    -0.22900
H2251       H  0.66865492  0.81298858  0.59649637     0.08300
C2252       C  0.70335129  0.83086912  0.64177250     0.04600
C2253       C  0.72444133  0.84632390  0.64040210    -0.20100
C2254       C  0.72340911  0.86979185  0.62971647    -0.12400
C2255       C  0.70026056  0.87828806  0.62068905     0.13300
C2256       C  0.67892470  0.86305767  0.62278465    -0.22800
C2257       C  0.70603847  0.80492051  0.65158798    -0.05900
H2258       H  0.74214160  0.83967830  0.64711186     0.14800
C2259       C  0.69747043  0.90221673  0.60734008    -0.16100
H2260       H  0.66136057  0.86911172  0.61535884     0.09200
H2261       H  0.65794712  0.76586276  0.58289138     0.07000
H2262       H  0.63442361  0.78766639  0.57313168     0.08200
H2263       H  0.62515286  0.75921608  0.58646996     0.07300
H2264       H  0.63859392  0.85177906  0.66608839     0.02100
H2265       H  0.66227184  0.83170744  0.67824489     0.02600
H2266       H  0.62971740  0.82530379  0.68311711     0.06100
H2267       H  0.72547194  0.80115079  0.65735004     0.05100
H2268       H  0.70114897  0.79073637  0.63856725    -0.00700
H2269       H  0.69346969  0.80264698  0.66635854     0.00800
H2270       H  0.68974357  0.89785950  0.59031353     0.04500
H2271       H  0.71526237  0.91227585  0.60460212     0.06400
H2272       H  0.68430596  0.91494391  0.61621936     0.07300
C2273       C  0.43278070  0.60828690  0.61140308    -0.22300
C2274       C  0.43810221  0.63378265  0.61434370     0.09600
C2275       C  0.41833134  0.65084779  0.61772167     0.10000
C2276       C  0.39380084  0.64183846  0.61960795    -0.17300
C2277       C  0.38856308  0.61605299  0.61871772    -0.27700
C2278       C  0.40823202  0.59912878  0.61362776     0.18400
C2279       C  0.46443898  0.64182284  0.61741410     0.12300
C2280       C  0.42330217  0.67844103  0.62055982    -0.12000
H2281       H  0.37884914  0.65495277  0.62323611     0.12600
C2282       C  0.40360940  0.57149765  0.61054317    -0.22900
H2283       H  0.44810662  0.59535824  0.60858217     0.08300
C2284       C  0.47630583  0.63890259  0.63859530     0.04600
C2285       C  0.50008085  0.64922456  0.64201699    -0.20100
C2286       C  0.51249179  0.66243878  0.62477619    -0.12400
C2287       C  0.50118056  0.66398735  0.60302746     0.13300
C2288       C  0.47704211  0.65406279  0.59979951    -0.22800
C2289       C  0.46347167  0.62564719  0.65790293    -0.05900
H2290       H  0.50864251  0.64771325  0.65862049     0.14800
C2291       C  0.51407657  0.67508197  0.58267037    -0.16100
H2292       H  0.46796286  0.65590649  0.58344652     0.09200
H2293       H  0.39776240  0.56287249  0.62677337     0.07000
H2294       H  0.42074681  0.56156271  0.60484847     0.08200
H2295       H  0.38887203  0.56856437  0.59753098     0.07300
H2296       H  0.43239134  0.68589500  0.60507545     0.02100
H2297       H  0.43579325  0.68155429  0.63534009     0.02600
H2298       H  0.40577386  0.68916339  0.62340657     0.06100
H2299       H  0.47520352  0.62542066  0.67344677     0.05100
H2300       H  0.45954059  0.60594322  0.65311192    -0.00700
H2301       H  0.44560646  0.63525116  0.66198622     0.00800
H2302       H  0.51390063  0.66126178  0.56861464     0.04500
H2303       H  0.53392757  0.67982030  0.58575298     0.06400
H2304       H  0.50396019  0.69217230  0.57709772     0.07300
C2305       C  0.63202215  0.81783915  0.37010918    -0.22300
C2306       C  0.65539944  0.81623564  0.35949549     0.09600
C2307       C  0.66312067  0.79329549  0.34996310     0.10000
C2308       C  0.64733883  0.77243190  0.35136820    -0.17300
C2309       C  0.62425386  0.77354620  0.36272224    -0.27700
C2310       C  0.61645786  0.79671369  0.37223682     0.18400
C2311       C  0.67327425  0.83732684  0.36146427     0.12300
C2312       C  0.68856927  0.79048313  0.33924009    -0.12000
H2313       H  0.65347287  0.75480525  0.34413668     0.12600
C2314       C  0.59300943  0.79978050  0.38614125    -0.22900
H2315       H  0.62650771  0.83537554  0.37790803     0.08300
C2316       C  0.67781645  0.85410718  0.34345251     0.04600
C2317       C  0.69860324  0.87024870  0.34461092    -0.20100
C2318       C  0.71466623  0.86985765  0.36344485    -0.12400
C2319       C  0.70866950  0.85463557  0.38228590     0.13300
C2320       C  0.68812907  0.83847182  0.38098450    -0.22800
C2321       C  0.66107563  0.85451897  0.32292609    -0.05900
H2322       H  0.70306829  0.88218993  0.33033702     0.14800
C2323       C  0.72378629  0.85469310  0.40389154    -0.16100
H2324       H  0.68430787  0.82585329  0.39495155     0.09200
H2325       H  0.58015855  0.81306285  0.37750948     0.07000
H2326       H  0.59797621  0.80753620  0.40301480     0.08200
H2327       H  0.58287178  0.78212180  0.38927780     0.07300
H2328       H  0.70336752  0.79476131  0.35187864     0.02100
H2329       H  0.69040196  0.80348349  0.32469470     0.02600
H2330       H  0.69176059  0.77115869  0.33292018     0.06100
H2331       H  0.66719529  0.86880085  0.31043914     0.05100
H2332       H  0.64165313  0.85903898  0.32817261    -0.00700
H2333       H  0.66118788  0.83598917  0.31444873     0.00800
H2334       H  0.71135652  0.85914165  0.41839976     0.04500
H2335       H  0.73897815  0.86878880  0.40383116     0.06400
H2336       H  0.73219484  0.83591687  0.40662467     0.07300
C2337       C  0.45569453  0.65912839  0.36968810    -0.22300
C2338       C  0.45236064  0.64553468  0.38974944     0.09600
C2339       C  0.47250437  0.64323699  0.40515015     0.10000
C2340       C  0.49576179  0.65422551  0.39979519     0.01900
C2341       C  0.49908634  0.66739086  0.37941413    -0.27700
C2342       C  0.47865406  0.67019600  0.36437687     0.18400
C2343       C  0.42780568  0.63299097  0.39302943     0.12300
C2344       C  0.46940738  0.62928507  0.42710619    -0.12000
H2345       H  0.51147806  0.65210582  0.41125641     0.12600
C2346       C  0.48041350  0.68448886  0.34238325    -0.22900
H2347       H  0.44025059  0.66080962  0.35784382     0.08300
C2348       C  0.40580735  0.64701156  0.39664216     0.04600
C2349       C  0.38239497  0.63567827  0.39322191    -0.20100
C2350       C  0.38036983  0.61059244  0.38606161    -0.12400
C2351       C  0.40250423  0.59584814  0.38500682     0.13300
C2352       C  0.42590578  0.60733504  0.38838071    -0.22800
C2353       C  0.40709165  0.67416199  0.40348385    -0.05900
H2354       H  0.36568608  0.64703532  0.39477749     0.14800
C2355       C  0.40189710  0.56814318  0.38007525    -0.16100
H2356       H  0.44289465  0.59658145  0.38594815     0.09200
H2357       H  0.46640558  0.69985635  0.34232825     0.07000
H2358       H  0.47640416  0.67171193  0.32799535     0.08200
H2359       H  0.49901668  0.69300298  0.33955581     0.07300
H2360       H  0.46457184  0.60944471  0.42366437     0.02100
H2361       H  0.45421311  0.63802847  0.43718774     0.02600
H2362       H  0.48682971  0.62962593  0.43738475     0.06100
H2363       H  0.38817601  0.68224102  0.40617368     0.05100
H2364       H  0.41649868  0.68531798  0.39014078    -0.00700
H2365       H  0.41776382  0.67591229  0.41956011     0.00800
H2366       H  0.42061104  0.55941992  0.38232518     0.04500
H2367       H  0.39612438  0.56472457  0.36229552     0.06400
H2368       H  0.38877856  0.55868051  0.39186062     0.07300
C2369       C  0.56700815  0.70905769  0.47557036    -0.22300
C2370       C  0.58978652  0.70765574  0.48715232     0.09600
C2371       C  0.61230217  0.70487760  0.47507041     0.10000
C2372       C  0.61161854  0.70453265  0.45136659    -0.17300
C2373       C  0.58886690  0.70654953  0.43951177    -0.27700
C2374       C  0.56614576  0.70835104  0.45185708     0.18400
C2375       C  0.58956594  0.70863250  0.51205663     0.12300
C2376       C  0.63695885  0.70198948  0.48722245    -0.12000
H2377       H  0.62899500  0.70284276  0.44205913     0.12600
C2378       C  0.54086512  0.70862334  0.44042589    -0.22900
H2379       H  0.54983224  0.71065784  0.48520511     0.08300
C2380       C  0.59283310  0.73139195  0.52377582     0.04600
C2381       C  0.59330464  0.73118782  0.54749636    -0.20100
C2382       C  0.59080600  0.70870933  0.55954010    -0.12400
C2383       C  0.58646919  0.68607224  0.54775516     0.13300
C2384       C  0.58599139  0.68633917  0.52406112    -0.22800
C2385       C  0.59589770  0.75577590  0.51124928    -0.05900
H2386       H  0.59615924  0.74852267  0.55664700     0.14800
C2387       C  0.58169137  0.66148739  0.55952925    -0.16100
H2388       H  0.58296324  0.66903320  0.51486209     0.09200
H2389       H  0.52535480  0.70800384  0.45290995     0.07000
H2390       H  0.53896508  0.69201930  0.42923228     0.08200
H2391       H  0.53850002  0.72603867  0.43041091     0.07300
H2392       H  0.63640093  0.68512665  0.49820895     0.02100
H2393       H  0.64068405  0.71869554  0.49786588     0.02600
H2394       H  0.65275285  0.69981243  0.47518207     0.06100
H2395       H  0.59823883  0.77179664  0.52305757     0.05100
H2396       H  0.57910531  0.75934982  0.50063494    -0.00700
H2397       H  0.61263903  0.75494353  0.50019184     0.00800
H2398       H  0.56303865  0.65426818  0.55442586     0.04500
H2399       H  0.58184929  0.66298846  0.57824894     0.06400
H2400       H  0.59611614  0.64767686  0.55437950     0.07300
C2401       C  0.81549680  0.33454466  0.61280835    -0.22300
C2402       C  0.83089260  0.33449110  0.63199422     0.09600
C2403       C  0.82708948  0.35254430  0.64910913     0.10000
C2404       C  0.80684781  0.36933929  0.64724626    -0.17300
C2405       C  0.79044731  0.36834325  0.62863606    -0.27700
C2406       C  0.79552627  0.35136967  0.61073403     0.18400
C2407       C  0.84947239  0.31398718  0.63417931     0.12300
C2408       C  0.84415374  0.35379403  0.66938551    -0.12000
H2409       H  0.80316271  0.38249897  0.66081599     0.12600
C2410       C  0.78049429  0.35048265  0.58907679    -0.22900
H2411       H  0.81879203  0.32093043  0.59950289     0.08300
C2412       C  0.84290498  0.29122437  0.64469021     0.04600
C2413       C  0.85930838  0.27079595  0.64338973    -0.20100
C2414       C  0.88182910  0.27215868  0.63117539    -0.12400
C2415       C  0.88854448  0.29515659  0.62079234     0.13300
C2416       C  0.87239392  0.31587656  0.62278753    -0.22800
C2417       C  0.81797757  0.28804547  0.65626361    -0.05900
H2418       H  0.85399815  0.25321069  0.65119639     0.14800
C2419       C  0.91138098  0.29830300  0.60610649    -0.16100
H2420       H  0.87703938  0.33324666  0.61427550     0.09200
H2421       H  0.77101195  0.33206278  0.58763064     0.07000
H2422       H  0.79323328  0.35285067  0.57439332     0.08200
H2423       H  0.76623198  0.36544912  0.58783639     0.07300
H2424       H  0.86361535  0.35735228  0.66370139     0.02100
H2425       H  0.84363152  0.33586486  0.67884860     0.02600
H2426       H  0.83863032  0.36904681  0.68115030     0.06100
H2427       H  0.81569979  0.26890109  0.66330940     0.05100
H2428       H  0.80260076  0.29132489  0.64394413    -0.00700
H2429       H  0.81621191  0.30157539  0.67041435     0.00800
H2430       H  0.90554545  0.30468739  0.58898733     0.04500
H2431       H  0.92228102  0.28091819  0.60376999     0.06400
H2432       H  0.92385426  0.31267451  0.61366172     0.07300
C2433       C  0.65593498  0.58726055  0.60155917    -0.22300
C2434       C  0.65240856  0.56891066  0.61818034     0.09600
C2435       C  0.63688580  0.57387944  0.63692694     0.10000
C2436       C  0.62530537  0.59726616  0.63875057    -0.17300
C2437       C  0.62940786  0.61613838  0.62262668    -0.27700
C2438       C  0.64476893  0.61099718  0.60361480     0.18400
C2439       C  0.66596559  0.54489053  0.61657615     0.12300
C2440       C  0.63312430  0.55472411  0.65537736    -0.12000
H2441       H  0.61388161  0.60121244  0.65348691     0.12600
C2442       C  0.64930178  0.63020031  0.58538294    -0.22900
H2443       H  0.66791287  0.58314490  0.58723093     0.08300
C2444       C  0.65456300  0.52346548  0.60724939     0.04600
C2445       C  0.66600468  0.50005143  0.61020691    -0.20100
C2446       C  0.68852814  0.49771001  0.62229581    -0.12400
C2447       C  0.70046883  0.51944130  0.63083004     0.13300
C2448       C  0.68913732  0.54282567  0.62751383    -0.22800
C2449       C  0.62994379  0.52528016  0.59490581    -0.05900
H2450       H  0.65686097  0.48335701  0.60383772     0.14800
C2451       C  0.72400521  0.51872395  0.64499324    -0.16100
H2452       H  0.69760745  0.55940464  0.63484827     0.09200
H2453       H  0.63115745  0.63702240  0.57864896     0.07000
H2454       H  0.66014591  0.62226503  0.57104062     0.08200
H2455       H  0.66016623  0.64616419  0.59227323     0.07300
H2456       H  0.65138828  0.55001865  0.66329415     0.02100
H2457       H  0.62472627  0.53747195  0.64818345     0.02600
H2458       H  0.62050380  0.56174423  0.66889093     0.06100
H2459       H  0.62359433  0.50672247  0.58866570     0.05100
H2460       H  0.63192678  0.53795534  0.58011409    -0.00700
H2461       H  0.61532991  0.53282290  0.60636812     0.00800
H2462       H  0.73890524  0.52965167  0.63643471     0.04500
H2463       H  0.73121439  0.49961631  0.64809343     0.06400
H2464       H  0.72024333  0.52728606  0.66179241     0.07300
C2465       C  0.53506473  0.36355988  0.59959331    -0.22300
C2466       C  0.55544794  0.35020324  0.60829240     0.09600
C2467       C  0.55184346  0.32587315  0.61695983     0.10000
C2468       C  0.52764241  0.31583260  0.61763965    -0.17300
C2469       C  0.50676968  0.33001381  0.61089282    -0.27700
C2470       C  0.51068123  0.35388765  0.60097215     0.18400
C2471       C  0.57960553  0.36322766  0.61139524     0.12300
C2472       C  0.57335070  0.31106009  0.62667074    -0.12000
H2473       H  0.52486363  0.29751336  0.62510915     0.12600
C2474       C  0.48933511  0.36969008  0.59253602    -0.22900
H2475       H  0.53808608  0.38225175  0.59298559     0.08300
C2476       C  0.59914548  0.36146626  0.59551346     0.04600
C2477       C  0.62263057  0.37170892  0.60087325    -0.20100
C2478       C  0.62694396  0.38356370  0.62180166    -0.12400
C2479       C  0.60702117  0.38552789  0.63759173     0.13300
C2480       C  0.58351704  0.37584223  0.63185781    -0.22800
C2481       C  0.59522302  0.34856666  0.57312067    -0.05900
H2482       H  0.63783111  0.37010985  0.58882396     0.14800
C2483       C  0.60988551  0.39585098  0.66127539    -0.16100
H2484       H  0.56839196  0.37684442  0.64406195     0.09200
H2485       H  0.47726345  0.35861226  0.58095235     0.07000
H2486       H  0.49602188  0.38642861  0.58316832     0.08200
H2487       H  0.47844401  0.37646446  0.60721687     0.07300
H2488       H  0.58177776  0.32137119  0.64111626     0.02100
H2489       H  0.58780570  0.30805747  0.61348542     0.02600
H2490       H  0.56723360  0.29244193  0.63293668     0.06100
H2491       H  0.61243770  0.34885314  0.56261640     0.05100
H2492       H  0.58008866  0.35816571  0.56357125    -0.00700
H2493       H  0.58984557  0.32874444  0.57590660     0.00800
H2494       H  0.59827061  0.41297868  0.66307628     0.04500
H2495       H  0.62933729  0.40035783  0.66608099     0.06400
H2496       H  0.60329284  0.38170359  0.67369523     0.07300
C2497       C  0.81041568  0.33522362  0.37628523    -0.22300
C2498       C  0.82497745  0.33803534  0.35676595     0.09600
C2499       C  0.81835643  0.35627648  0.34052038     0.10000
C2500       C  0.79664942  0.37071783  0.34383924    -0.17300
C2501       C  0.78122028  0.36679700  0.36275397    -0.27700
C2502       C  0.78860240  0.34929264  0.37950730     0.18400
C2503       C  0.84470906  0.31911351  0.35264959     0.12300
C2504       C  0.83402333  0.36026856  0.31966417    -0.12000
H2505       H  0.79113550  0.38434459  0.33116712     0.12600
C2506       C  0.77369708  0.34536241  0.40089800    -0.22900
H2507       H  0.81560169  0.32109389  0.38862574     0.08300
C2508       C  0.86658723  0.31780669  0.36603329     0.04600
C2509       C  0.88148334  0.29611604  0.36520334    -0.20100
C2510       C  0.87480240  0.27578865  0.35135627    -0.12400
C2511       C  0.85436015  0.27838117  0.33621838     0.13300
C2512       C  0.83932318  0.29978547  0.33740248    -0.22800
C2513       C  0.87375796  0.33895847  0.38159906    -0.05900
H2514       H  0.89739226  0.29438177  0.37650700     0.14800
C2515       C  0.84775082  0.25893989  0.31870209    -0.16100
H2516       H  0.82265884  0.30095832  0.32694253     0.09200
H2517       H  0.77108146  0.36351236  0.40976306     0.07000
H2518       H  0.78329353  0.33235838  0.41276033     0.08200
H2519       H  0.75520219  0.33708689  0.39684866     0.07300
H2520       H  0.83442471  0.34295520  0.30928948     0.02100
H2521       H  0.85341503  0.36523394  0.32470831     0.02600
H2522       H  0.82649052  0.37562753  0.30894799     0.06100
H2523       H  0.89167273  0.33511135  0.39051175     0.05100
H2524       H  0.85906527  0.34184178  0.39458757    -0.00700
H2525       H  0.87601129  0.35642068  0.37160502     0.00800
H2526       H  0.82944025  0.25031793  0.32289754     0.04500
H2527       H  0.86210493  0.24407319  0.31725604     0.06400
H2528       H  0.84636148  0.26795384  0.30179322     0.07300
C2529       C  0.67751833  0.53728038  0.37970972    -0.22300
C2530       C  0.65173379  0.53834519  0.38388199     0.09600
C2531       C  0.63809528  0.51593534  0.38622639     0.10000
C2532       C  0.65024847  0.49294513  0.38293202    -0.17300
C2533       C  0.67570831  0.49179347  0.37711246    -0.27700
C2534       C  0.68973348  0.51433247  0.37601860     0.18400
C2535       C  0.63877080  0.56276165  0.38154688     0.12300
C2536       C  0.61054915  0.51635620  0.39155828    -0.12000
H2537       H  0.63954627  0.47574696  0.38396027     0.12600
C2538       C  0.71693835  0.51545951  0.36928444    -0.22900
H2539       H  0.68784432  0.55460940  0.37770281     0.08300
C2540       C  0.63901156  0.58117013  0.39865244     0.04600
C2541       C  0.62746223  0.60444414  0.39455273    -0.20100
C2542       C  0.61588855  0.60970251  0.37364957    -0.12400
C2543       C  0.61612328  0.59118247  0.35640122     0.13300
C2544       C  0.62711444  0.56789004  0.36081997    -0.22800
C2545       C  0.65145441  0.57621992  0.42109587    -0.05900
H2546       H  0.62772140  0.61871728  0.40760221     0.14800
C2547       C  0.60665246  0.59548801  0.33259415    -0.16100
H2548       H  0.62748325  0.55381655  0.34757147     0.09200
H2549       H  0.72803232  0.52358324  0.38339928     0.07000
H2550       H  0.71899076  0.52766263  0.35417032     0.08200
H2551       H  0.72514593  0.49713737  0.36485266     0.07300
H2552       H  0.60012226  0.52607685  0.37786720     0.02100
H2553       H  0.60745148  0.52635402  0.40780267     0.02600
H2554       H  0.60279356  0.49715765  0.39320088     0.06100
H2555       H  0.64972061  0.59248371  0.43271339     0.05100
H2556       H  0.67165876  0.57237376  0.41850110    -0.00700
H2557       H  0.64262803  0.55975640  0.42931453     0.00800
H2558       H  0.62187819  0.59138723  0.32035513     0.04500
H2559       H  0.60054965  0.61487833  0.32917313     0.06400
H2560       H  0.59076035  0.58267276  0.32911396     0.07300
C2561       C  0.58685889  0.35433743  0.39531003    -0.22300
C2562       C  0.56939426  0.35753161  0.37778682     0.09600
C2563       C  0.57547275  0.37273083  0.35906412     0.10000
C2564       C  0.59923422  0.38367400  0.35785777    -0.17300
C2565       C  0.61728243  0.37958847  0.37479240    -0.27700
C2566       C  0.61071134  0.36538745  0.39417809     0.18400
C2567       C  0.54525236  0.34391394  0.37846909     0.12300
C2568       C  0.55721515  0.37656741  0.33987851    -0.12000
H2569       H  0.60418760  0.39441962  0.34294542     0.12600
C2570       C  0.62805229  0.36191372  0.41409556    -0.22900
H2571       H  0.58193678  0.34294192  0.40982970     0.08300
C2572       C  0.54334828  0.31910004  0.37044591     0.04600
C2573       C  0.51962120  0.30819005  0.36792905    -0.20100
C2574       C  0.49775661  0.32166457  0.37298961    -0.12400
C2575       C  0.49982495  0.34594627  0.38249952     0.13300
C2576       C  0.52357981  0.35682609  0.38492505    -0.22800
C2577       C  0.56628765  0.30460873  0.36352184    -0.05900
H2578       H  0.51808293  0.28959435  0.36068789     0.14800
C2579       C  0.47750122  0.36083661  0.39041003    -0.16100
H2580       H  0.52517558  0.37578629  0.39133523     0.09200
H2581       H  0.63292577  0.34179950  0.41587931     0.07000
H2582       H  0.61851903  0.36823715  0.42978805     0.08200
H2583       H  0.64552481  0.37292497  0.41265605     0.07300
H2584       H  0.53998017  0.38571121  0.34630928     0.02100
H2585       H  0.55227776  0.35822581  0.33223558     0.02600
H2586       H  0.56513127  0.38861878  0.32634261     0.06100
H2587       H  0.56147496  0.28557730  0.35731480     0.05100
H2588       H  0.57906009  0.30257327  0.37825530    -0.00700
H2589       H  0.57617360  0.31465660  0.34972287     0.00800
H2590       H  0.48030315  0.36640311  0.40835957     0.04500
H2591       H  0.45976359  0.35015245  0.38966452     0.06400
H2592       H  0.47553365  0.37799468  0.37993550     0.07300
C2593       C  0.71481892  0.38581003  0.47607577    -0.22300
C2594       C  0.71864509  0.40940396  0.48581663     0.09600
C2595       C  0.72165007  0.43049911  0.47177805     0.10000
C2596       C  0.72054267  0.42752716  0.44817585    -0.17300
C2597       C  0.71638076  0.40392389  0.43821150    -0.27700
C2598       C  0.71359239  0.38271747  0.45248035     0.18400
C2599       C  0.71964742  0.41132810  0.51082828     0.12300
C2600       C  0.72571055  0.45614468  0.48173157    -0.12000
H2601       H  0.72264683  0.44385899  0.43744728     0.12600
C2602       C  0.71006215  0.35666512  0.44317431    -0.22900
H2603       H  0.71278054  0.36970044  0.48709584     0.08300
C2604       C  0.69770462  0.41052844  0.52401938     0.04600
C2605       C  0.69970203  0.41019335  0.54771194    -0.20100
C2606       C  0.72313562  0.41070569  0.55853435    -0.12400
C2607       C  0.74515759  0.41193490  0.54522089     0.13300
C2608       C  0.74303684  0.41241962  0.52152125    -0.22800
C2609       C  0.67222694  0.41002312  0.51306915    -0.05900
H2610       H  0.68285120  0.40935972  0.55788897     0.14800
C2611       C  0.77120847  0.41139382  0.55508144    -0.16100
H2612       H  0.75983265  0.41281759  0.51124563     0.09200
H2613       H  0.69188316  0.35532736  0.43415578     0.07000
H2614       H  0.70992839  0.34235102  0.45682393     0.08200
H2615       H  0.72560088  0.35201297  0.43145108     0.07300
H2616       H  0.74319342  0.45630844  0.49190300     0.02100
H2617       H  0.70968985  0.46114806  0.49279319     0.02600
H2618       H  0.72736660  0.47069343  0.46837491     0.06100
H2619       H  0.65701386  0.40988218  0.52586019     0.05100
H2620       H  0.67027170  0.39297897  0.50246528    -0.00700
H2621       H  0.66979662  0.42686218  0.50225220     0.00800
H2622       H  0.78164490  0.39524973  0.54792113     0.04500
H2623       H  0.77167841  0.40936832  0.57370359     0.06400
H2624       H  0.78115231  0.42891875  0.55051789     0.07300
C2625       C  0.20031104  0.33325533  0.87847775    -0.22300
C2626       C  0.18267760  0.33717667  0.86131742     0.09600
C2627       C  0.18504069  0.35806094  0.84684978     0.10000
C2628       C  0.20614971  0.37368268  0.84891013    -0.17300
C2629       C  0.22478948  0.36858775  0.86507051    -0.27700
C2630       C  0.22125098  0.34872784  0.88065855     0.18400
C2631       C  0.16364378  0.31746331  0.85772801     0.12300
C2632       C  0.16569968  0.36329287  0.82891853    -0.12000
H2633       H  0.20874497  0.38905566  0.83716489     0.12600
C2634       C  0.23921206  0.34313615  0.89974947    -0.22900
H2635       H  0.19815834  0.31739914  0.88979579     0.08300
C2636       C  0.16963740  0.29579137  0.84521001     0.04600
C2637       C  0.15339973  0.27524902  0.84574181    -0.20100
C2638       C  0.13125797  0.27582304  0.85846265    -0.12400
C2639       C  0.12450445  0.29813953  0.86996775     0.13300
C2640       C  0.14092401  0.31868785  0.86947676    -0.22800
C2641       C  0.19364984  0.29402076  0.83195228    -0.05900
H2642       H  0.15844252  0.25824468  0.83679231     0.14800
C2643       C  0.10107936  0.30069024  0.88395298    -0.16100
H2644       H  0.13651581  0.33536346  0.87916309     0.09200
H2645       H  0.24741426  0.32421339  0.89736748     0.07000
H2646       H  0.22899338  0.34355208  0.91610931     0.08200
H2647       H  0.25464412  0.35684725  0.90103663     0.07300
H2648       H  0.14718548  0.36618446  0.83701289     0.02100
H2649       H  0.16447891  0.34722810  0.81704377     0.02600
H2650       H  0.17033843  0.38033279  0.81900226     0.06100
H2651       H  0.19535005  0.27579385  0.82302403     0.05100
H2652       H  0.20993018  0.29595250  0.84351629    -0.00700
H2653       H  0.19427410  0.30914592  0.81907370     0.00800
H2654       H  0.10621531  0.30483655  0.90179665     0.04500
H2655       H  0.08927211  0.28372872  0.88392039     0.06400
H2656       H  0.08962346  0.31640308  0.87727736     0.07300
C2657       C  0.27943568  0.53397761  0.74341027    -0.22300
C2658       C  0.26466902  0.51253527  0.74080049     0.09600
C2659       C  0.25289656  0.50782689  0.71988572     0.10000
C2660       C  0.25905927  0.52271043  0.70112168    -0.17300
C2661       C  0.27637340  0.54249967  0.70298205    -0.27700
C2662       C  0.28524123  0.54928768  0.72484437     0.18400
C2663       C  0.26531605  0.49357631  0.75906349     0.12300
C2664       C  0.23408346  0.48699756  0.71739349    -0.12000
H2665       H  0.25123116  0.51798943  0.68472980     0.12600
C2666       C  0.30093429  0.57234830  0.72895067    -0.22900
H2667       H  0.28770744  0.53788313  0.75981809     0.08300
C2668       C  0.28174338  0.47294789  0.75752122     0.04600
C2669       C  0.28489269  0.45730560  0.77630234    -0.20100
C2670       C  0.27327226  0.46247025  0.79712430    -0.12400
C2671       C  0.25670936  0.48321422  0.79865810     0.13300
C2672       C  0.25257167  0.49814687  0.77937251    -0.22800
C2673       C  0.29756990  0.46850747  0.73672602    -0.05900
H2674       H  0.29787083  0.44174496  0.77514660     0.14800
C2675       C  0.24461325  0.49166614  0.82041795    -0.16100
H2676       H  0.24055032  0.51445506  0.78059635     0.09200
H2677       H  0.31980525  0.57006894  0.72146296     0.07000
H2678       H  0.30363854  0.57592647  0.74732963     0.08200
H2679       H  0.29152371  0.58902838  0.72158845     0.07300
H2680       H  0.21820022  0.49037469  0.72909532     0.02100
H2681       H  0.24261384  0.46864554  0.72155257     0.02600
H2682       H  0.22655301  0.48594656  0.69987372     0.06100
H2683       H  0.31012412  0.45208262  0.73882024     0.05100
H2684       H  0.30945312  0.48515319  0.73343766    -0.00700
H2685       H  0.28561427  0.46498202  0.72172619     0.00800
H2686       H  0.25012228  0.51132251  0.82399576     0.04500
H2687       H  0.24996794  0.48050582  0.83538811     0.06400
H2688       H  0.22395679  0.49084580  0.81857441     0.07300
C2689       C  0.36630849  0.34521540  0.72894581    -0.22300
C2690       C  0.34710182  0.32838288  0.73398118     0.09600
C2691       C  0.34081371  0.30935740  0.71850930     0.10000
C2692       C  0.35459330  0.30713549  0.69837256    -0.17300
C2693       C  0.37448673  0.32352676  0.69358704    -0.27700
C2694       C  0.38005418  0.34318784  0.70893402     0.18400
C2695       C  0.33367069  0.33222935  0.75544766     0.12300
C2696       C  0.31968457  0.29154612  0.72330476    -0.12000
H2697       H  0.35003143  0.29238054  0.68648967     0.12600
C2698       C  0.39974604  0.36273006  0.70412720    -0.22900
H2699       H  0.37051089  0.36010433  0.74085171     0.08300
C2700       C  0.34370589  0.32345711  0.77609268     0.04600
C2701       C  0.33491269  0.33358144  0.79649035    -0.20100
C2702       C  0.31726508  0.35303190  0.79639111    -0.12400
C2703       C  0.30547459  0.35991691  0.77584477     0.13300
C2704       C  0.31384551  0.34934498  0.75555647    -0.22800
C2705       C  0.36491616  0.30486236  0.77646514    -0.05900
H2706       H  0.34370482  0.32815642  0.81230747     0.14800
C2707       C  0.28477050  0.37907012  0.77468286    -0.16100
H2708       H  0.30612624  0.35587232  0.73960996     0.09200
H2709       H  0.41864589  0.35414430  0.70432859     0.07000
H2710       H  0.39975086  0.37782444  0.71707211     0.08200
H2711       H  0.39611960  0.37156055  0.68740508     0.07300
H2712       H  0.30195037  0.30218182  0.72517090     0.02100
H2713       H  0.32351339  0.28114400  0.73921419     0.02600
H2714       H  0.31724039  0.27772247  0.70942074     0.06100
H2715       H  0.37064960  0.30011125  0.79404224     0.05100
H2716       H  0.38142764  0.31274878  0.76760056    -0.00700
H2717       H  0.35905977  0.28734693  0.76785659     0.00800
H2718       H  0.29110705  0.39552373  0.76474290     0.04500
H2719       H  0.27863000  0.38551972  0.79164129     0.06400
H2720       H  0.26822551  0.37071911  0.76616920     0.07300
C2721       C  0.17992816  0.36151146  0.12248467    -0.22300
C2722       C  0.18163537  0.33798546  0.13288644     0.09600
C2723       C  0.20438173  0.33053214  0.14299177     0.10000
C2724       C  0.22495612  0.34675617  0.14238860    -0.17300
C2725       C  0.22368751  0.37005434  0.13137911    -0.27700
C2726       C  0.20076823  0.37753179  0.12120958     0.18400
C2727       C  0.16096223  0.31978502  0.13003926     0.12300
C2728       C  0.20730174  0.30496472  0.15352194    -0.12000
H2729       H  0.24248546  0.34083422  0.14993212     0.12600
C2730       C  0.19783054  0.40114200  0.10743607    -0.22900
H2731       H  0.16259611  0.36680647  0.11418927     0.08300
C2732       C  0.14303578  0.31529799  0.14710224     0.04600
C2733       C  0.12672920  0.29471772  0.14496267    -0.20100
C2734       C  0.12815459  0.27875896  0.12611221    -0.12400
C2735       C  0.14476778  0.28462162  0.10822604     0.13300
C2736       C  0.16103825  0.30495697  0.11050977    -0.22800
C2737       C  0.14161143  0.33184075  0.16769421    -0.05900
H2738       H  0.11384897  0.29029571  0.15854491     0.14800
C2739       C  0.14608717  0.26960522  0.08659928    -0.16100
H2740       H  0.17457172  0.30873669  0.09727393     0.09200
H2741       H  0.18372606  0.41348098  0.11554682     0.07000
H2742       H  0.19121721  0.39625226  0.09014747     0.08200
H2743       H  0.21535270  0.41184145  0.10536277     0.07300
H2744       H  0.20382571  0.29027324  0.14059087     0.02100
H2745       H  0.19377169  0.30266521  0.16758845     0.02600
H2746       H  0.22641809  0.30207536  0.16046118     0.06100
H2747       H  0.12652520  0.32579157  0.17938639     0.05100
H2748       H  0.13770087  0.35140019  0.16238151    -0.00700
H2749       H  0.15960156  0.33133372  0.17708312     0.00800
H2750       H  0.14313866  0.28222833  0.07188703     0.04500
H2751       H  0.13165600  0.25477160  0.08556590     0.06400
H2752       H  0.16481767  0.26075565  0.08511489     0.07300
C2753       C  0.30591911  0.42325778  0.97099757    -0.22300
C2754       C  0.28921535  0.40729928  0.98217006     0.09600
C2755       C  0.27320373  0.39161102  0.96958553     0.10000
C2756       C  0.27450497  0.39201362  0.94592243    -0.17300
C2757       C  0.29131676  0.40783633  0.93469241    -0.27700
C2758       C  0.30730331  0.42365424  0.94731738     0.18400
C2759       C  0.28919864  0.40690144  0.00711831     0.12300
C2760       C  0.25503756  0.37425843  0.98112667    -0.12000
H2761       H  0.26226920  0.38000495  0.93611830     0.12600
C2762       C  0.32658432  0.44042368  0.93653454    -0.22900
H2763       H  0.31823268  0.43517248  0.98085714     0.08300
C2764       C  0.30754351  0.39364084  0.01932043     0.04600
C2765       C  0.30676972  0.39376663  0.04300871    -0.20100
C2766       C  0.28798437  0.40679332  0.05490051    -0.12400
C2767       C  0.26934047  0.41991386  0.04236330     0.13300
C2768       C  0.27035991  0.41979897  0.01862974    -0.22800
C2769       C  0.32776112  0.37913005  0.00731284    -0.05900
H2770       H  0.32112876  0.38367532  0.05223823     0.14800
C2771       C  0.24800746  0.43374792  0.05346656    -0.16100
H2772       H  0.25632362  0.42978621  0.00888565     0.09200
H2773       H  0.34546086  0.43529589  0.94291652     0.07000
H2774       H  0.32268868  0.46018784  0.94115741     0.08200
H2775       H  0.32702945  0.43899985  0.91782349     0.07300
H2776       H  0.24159387  0.38527494  0.99140791     0.02100
H2777       H  0.26537206  0.36113704  0.99234232     0.02600
H2778       H  0.24417209  0.36303043  0.96870243     0.06100
H2779       H  0.34039150  0.36942331  0.01942809     0.05100
H2780       H  0.33927223  0.39201198  0.99690482    -0.00700
H2781       H  0.31915414  0.36478040  0.99614932     0.00800
H2782       H  0.25529785  0.44967105  0.06358232     0.04500
H2783       H  0.23724425  0.42077130  0.06443769     0.06400
H2784       H  0.23478152  0.44165315  0.04080742     0.07300
C2785       C  0.25271271  0.49681214  0.27655783    -0.22300
C2786       C  0.26617495  0.50378147  0.25722760     0.09600
C2787       C  0.28266770  0.52434015  0.25830983     0.10000
C2788       C  0.28617591  0.53669628  0.27898390    -0.17300
C2789       C  0.27405088  0.52878256  0.29885337    -0.27700
C2790       C  0.25664720  0.50870174  0.29750627     0.18400
C2791       C  0.26570403  0.48733858  0.23699496     0.12300
C2792       C  0.29756266  0.53251414  0.23794123    -0.12000
H2793       H  0.29925958  0.55217364  0.27981203     0.12600
C2794       C  0.24301412  0.49786131  0.31758994    -0.22900
H2795       H  0.24012850  0.48093243  0.27558405     0.08300
C2796       C  0.27909052  0.46456523  0.23692064     0.04600
C2797       C  0.28242109  0.45175497  0.21647425    -0.20100
C2798       C  0.27314701  0.46129322  0.19590321    -0.12400
C2799       C  0.25811299  0.48318561  0.19629488     0.13300
C2800       C  0.25453094  0.49588824  0.21692414    -0.22800
C2801       C  0.29115084  0.45444697  0.25815518    -0.05900
H2802       H  0.29347932  0.43472202  0.21640062     0.14800
C2803       C  0.24712125  0.49418349  0.17502284    -0.16100
H2804       H  0.24410038  0.51330194  0.21722573     0.09200
H2805       H  0.24768609  0.47766513  0.31917095     0.07000
H2806       H  0.22253212  0.49970508  0.31489898     0.08200
H2807       H  0.24766076  0.50667288  0.33393313     0.07300
H2808       H  0.28471489  0.53856371  0.22420665     0.02100
H2809       H  0.30931100  0.51676135  0.23181191     0.02600
H2810       H  0.31012564  0.54847096  0.24195378     0.06100
H2811       H  0.30160374  0.43683252  0.25488233     0.05100
H2812       H  0.27660701  0.45034274  0.27101022    -0.00700
H2813       H  0.30452148  0.46838639  0.26509724     0.00800
H2814       H  0.23653210  0.51167381  0.17847221     0.04500
H2815       H  0.23403579  0.48061045  0.16712946     0.06400
H2816       H  0.26234359  0.49876762  0.16303106     0.07300
C2817       C  0.30978679  0.32943965  0.22194803    -0.22300
C2818       C  0.33287450  0.33179723  0.23298690     0.09600
C2819       C  0.35185216  0.34681432  0.22350319     0.10000
C2820       C  0.34720716  0.35943058  0.20323983    -0.17300
C2821       C  0.32398415  0.35763348  0.19222603    -0.27700
C2822       C  0.30503351  0.34224225  0.20157885     0.18400
C2823       C  0.33683183  0.32004918  0.25529217     0.12300
C2824       C  0.37682014  0.35016322  0.23510176    -0.12000
H2825       H  0.36179816  0.37106498  0.19606485     0.12600
C2826       C  0.27954870  0.34003168  0.19081794    -0.22900
H2827       H  0.29533484  0.31799954  0.22956747     0.08300
C2828       C  0.32954486  0.33255785  0.27526715     0.04600
C2829       C  0.34045120  0.32555492  0.29591808    -0.20100
C2830       C  0.35874615  0.30677660  0.29668621    -0.12400
C2831       C  0.36385251  0.29243165  0.27712169     0.13300
C2832       C  0.35261384  0.29916531  0.25658596    -0.22800
C2833       C  0.31179513  0.35446797  0.27448897    -0.05900
H2834       H  0.33640979  0.33626430  0.31108032     0.14800
C2835       C  0.38169199  0.27058793  0.27716667    -0.16100
H2836       H  0.35783643  0.28941803  0.24118640     0.09200
H2837       H  0.26674875  0.32828592  0.20111809     0.07000
H2838       H  0.28120938  0.33114385  0.17390358     0.08200
H2839       H  0.27095380  0.35887502  0.18907566     0.07300
H2840       H  0.38655750  0.33186541  0.23645269     0.02100
H2841       H  0.37401490  0.35802621  0.25232255     0.02600
H2842       H  0.38921016  0.36311850  0.22560561     0.06100
H2843       H  0.30833796  0.36230372  0.29162718     0.05100
H2844       H  0.29357870  0.34837940  0.26731540    -0.00700
H2845       H  0.31968814  0.36957175  0.26374103     0.00800
H2846       H  0.37162356  0.25346407  0.27164163     0.04500
H2847       H  0.38983293  0.26680728  0.29411915     0.06400
H2848       H  0.39710087  0.27428533  0.26507512     0.07300
C2849       C  0.64470636  0.17630139  0.83961239    -0.22300
C2850       C  0.66419950  0.17302671  0.85530317     0.09600
C2851       C  0.66687244  0.19007653  0.87340092     0.10000
C2852       C  0.65025193  0.21023907  0.87519923    -0.17300
C2853       C  0.63124445  0.21413119  0.85915695    -0.27700
C2854       C  0.62820204  0.19679664  0.84121703     0.18400
C2855       C  0.68345700  0.15352294  0.85139878     0.12300
C2856       C  0.68802050  0.18772711  0.89022866    -0.12000
H2857       H  0.65271071  0.22370648  0.88877081     0.12600
C2858       C  0.60886277  0.20004332  0.82284493    -0.22900
H2859       H  0.64298444  0.16336609  0.82554641     0.08300
C2860       C  0.68344592  0.13066836  0.86337587     0.04600
C2861       C  0.70485590  0.11535420  0.86279398    -0.20100
C2862       C  0.72612409  0.12243409  0.85038347    -0.12400
C2863       C  0.72495037  0.14405369  0.83649317     0.13300
C2864       C  0.70377062  0.15950331  0.83747135    -0.22800
C2865       C  0.66113252  0.12286237  0.87720586    -0.05900
H2866       H  0.70553657  0.09861511  0.87316215     0.14800
C2867       C  0.74563743  0.15141847  0.82048570    -0.16100
H2868       H  0.70345511  0.17682339  0.82788227     0.09200
H2869       H  0.59626304  0.18353120  0.82262018     0.07000
H2870       H  0.61832704  0.20149933  0.80616748     0.08200
H2871       H  0.59721357  0.21701645  0.82506094     0.07300
H2872       H  0.70623719  0.18880991  0.88128021     0.02100
H2873       H  0.68680592  0.16957278  0.89927019     0.02600
H2874       H  0.68752989  0.20289188  0.90309542     0.06100
H2875       H  0.66417022  0.10443036  0.88548162     0.05100
H2876       H  0.64447913  0.12134809  0.86602497    -0.00700
H2877       H  0.65728951  0.13687588  0.89062136     0.00800
H2878       H  0.73783793  0.15378887  0.80316783     0.04500
H2879       H  0.76058323  0.13710795  0.81928319     0.06400
H2880       H  0.75401257  0.16942721  0.82602006     0.07300
C2881       C  0.64605770  0.30929126  0.75099107    -0.22300
C2882       C  0.67165947  0.31418408  0.75319458     0.09600
C2883       C  0.68317738  0.31196133  0.77459536     0.10000
C2884       C  0.66827483  0.30749201  0.79371178    -0.17300
C2885       C  0.64209886  0.30518107  0.79188346    -0.27700
C2886       C  0.63110659  0.30444570  0.76992775     0.18400
C2887       C  0.68415654  0.32677966  0.73399923     0.12300
C2888       C  0.71107616  0.31477093  0.77728564    -0.12000
H2889       H  0.67706050  0.30715228  0.81026036     0.12600
C2890       C  0.60369941  0.29905024  0.76597199    -0.22900
H2891       H  0.63734955  0.31101120  0.73446010     0.08300
C2892       C  0.68683725  0.31537366  0.71257793     0.04600
C2893       C  0.69237384  0.33035945  0.69367710    -0.20100
C2894       C  0.69508275  0.35642363  0.69584388    -0.12400
C2895       C  0.69489995  0.36729562  0.71775436     0.13300
C2896       C  0.68918553  0.35234276  0.73644774    -0.22800
C2897       C  0.68355087  0.28755882  0.70966037    -0.05900
H2898       H  0.69325414  0.32187251  0.67702109     0.14800
C2899       C  0.70053793  0.39461392  0.72174978    -0.16100
H2900       H  0.68709530  0.36099587  0.75295819     0.09200
H2901       H  0.59939427  0.29666995  0.74768000     0.07000
H2902       H  0.59200580  0.31479881  0.77212681     0.08200
H2903       H  0.59836996  0.28141302  0.77466960     0.07300
H2904       H  0.71709849  0.33385312  0.77233383     0.02100
H2905       H  0.72073948  0.30083868  0.76641632     0.02600
H2906       H  0.71709013  0.31161107  0.79507603     0.06100
H2907       H  0.68710750  0.28164152  0.69191956     0.05100
H2908       H  0.66421646  0.28191623  0.71409324    -0.00700
H2909       H  0.69694096  0.27751076  0.72083175     0.00800
H2910       H  0.68532615  0.40649415  0.71482511     0.04500
H2911       H  0.71863024  0.39956208  0.71370074     0.06400
H2912       H  0.70209412  0.39901952  0.74009098     0.07300
C2913       C  0.49913564  0.27107581  0.77279266    -0.22300
C2914       C  0.51228408  0.25919507  0.75533077     0.09600
C2915       C  0.53566910  0.24798225  0.75994556     0.10000
C2916       C  0.54618913  0.25041143  0.78167965    -0.17300
C2917       C  0.53391720  0.26418661  0.79856887    -0.27700
C2918       C  0.50964593  0.27371475  0.79438362     0.18400
C2919       C  0.50272978  0.26222067  0.73194321     0.12300
C2920       C  0.54985127  0.23435685  0.74171269    -0.12000
H2921       H  0.56483596  0.24325047  0.78494868     0.12600
C2922       C  0.49474547  0.28753186  0.81211309    -0.22900
H2923       H  0.48110624  0.27954843  0.76921198     0.08300
C2924       C  0.48207183  0.24853880  0.72375133     0.04600
C2925       C  0.47135121  0.25514381  0.70282681    -0.20100
C2926       C  0.48059530  0.27544442  0.69022192    -0.12400
C2927       C  0.50224474  0.28818846  0.69792189     0.13300
C2928       C  0.51299306  0.28137544  0.71870246    -0.22800
C2929       C  0.47118956  0.22729820  0.73727125    -0.05900
H2930       H  0.45499590  0.24516296  0.69679733     0.14800
C2931       C  0.51434792  0.30875407  0.68427850    -0.16100
H2932       H  0.52899039  0.29166433  0.72511211     0.09200
H2933       H  0.47637625  0.27818741  0.81442168     0.07000
H2934       H  0.49151015  0.30712638  0.80653775     0.08200
H2935       H  0.50415895  0.28789433  0.82885145     0.07300
H2936       H  0.55430858  0.24736734  0.72763283     0.02100
H2937       H  0.53829785  0.21869886  0.73511040     0.02600
H2938       H  0.56770972  0.22647430  0.74821646     0.06100
H2939       H  0.45528424  0.21830667  0.72829085     0.05100
H2940       H  0.46428791  0.23432175  0.75381338    -0.00700
H2941       H  0.48579551  0.21287058  0.74026649     0.00800
H2942       H  0.50175403  0.32520614  0.68305937     0.04500
H2943       H  0.51878112  0.30175824  0.66705327     0.06400
H2944       H  0.53208538  0.31523864  0.69215505     0.07300
C2945       C  0.42503593  0.35451706  0.85487932    -0.22300
C2946       C  0.43512532  0.35534608  0.87673317     0.09600
C2947       C  0.42088146  0.36541595  0.89463933     0.10000
C2948       C  0.39653731  0.37428155  0.89020156    -0.17300
C2949       C  0.38640429  0.37340582  0.86821640    -0.27700
C2950       C  0.40078560  0.36296014  0.85038886     0.18400
C2951       C  0.46060018  0.34502571  0.87989298     0.12300
C2952       C  0.43133764  0.36662874  0.91829215    -0.12000
H2953       H  0.38550132  0.38218061  0.90383428     0.12600
C2954       C  0.39107675  0.35927574  0.82658364    -0.22900
H2955       H  0.43606436  0.34658597  0.84122868     0.08300
C2956       C  0.46486443  0.31900907  0.87908239     0.04600
C2957       C  0.48935582  0.31005275  0.87662821    -0.20100
C2958       C  0.50979679  0.32650489  0.87454135    -0.12400
C2959       C  0.50556696  0.35263316  0.87735384     0.13300
C2960       C  0.48095796  0.36147419  0.87997302    -0.22800
C2961       C  0.44343675  0.30071490  0.88006993    -0.05900
H2962       H  0.49225021  0.29005679  0.87497338     0.14800
C2963       C  0.52655018  0.37150271  0.87731971    -0.16100
H2964       H  0.47742167  0.38144526  0.88078390     0.09200
H2965       H  0.39285284  0.33923174  0.82182413     0.07000
H2966       H  0.40233115  0.37065255  0.81461534     0.08200
H2967       H  0.37116959  0.36429223  0.82443911     0.07300
H2968       H  0.44844944  0.37839060  0.91847181     0.02100
H2969       H  0.43614393  0.34748156  0.92420183     0.02600
H2970       H  0.41769420  0.37485502  0.93035871     0.06100
H2971       H  0.45007291  0.28100754  0.87968023     0.05100
H2972       H  0.43075501  0.30353380  0.86538867    -0.00700
H2973       H  0.43278307  0.30357120  0.89598972     0.00800
H2974       H  0.51980685  0.39053438  0.88184216     0.04500
H2975       H  0.53500182  0.37284131  0.86021958     0.06400
H2976       H  0.54098373  0.36604707  0.88994413     0.07300
C2977       C  0.63885392  0.17151985  0.12137494    -0.22300
C2978       C  0.66311465  0.17389477  0.13021194     0.09600
C2979       C  0.67098424  0.19717645  0.13892400     0.10000
C2980       C  0.65435868  0.21746904  0.13878203    -0.17300
C2981       C  0.63028028  0.21556805  0.12926715    -0.27700
C2982       C  0.62240864  0.19213407  0.12039634     0.18400
C2983       C  0.68115727  0.15292742  0.12773592     0.12300
C2984       C  0.69738106  0.20102487  0.14731147    -0.12000
H2985       H  0.66058943  0.23533839  0.14543516     0.12600
C2986       C  0.59778645  0.18828347  0.10839793    -0.22900
H2987       H  0.63314789  0.15373798  0.11417309     0.08300
C2988       C  0.68732764  0.13685419  0.14591299     0.04600
C2989       C  0.70751784  0.12007686  0.14362541    -0.20100
C2990       C  0.72148767  0.11909602  0.12353049    -0.12400
C2991       C  0.71393007  0.13384580  0.10476582     0.13300
C2992       C  0.69400651  0.15069029  0.10719290    -0.22800
C2993       C  0.67290768  0.13778071  0.16777858    -0.05900
H2994       H  0.71325014  0.10871798  0.15794192     0.14800
C2995       C  0.72660058  0.13244052  0.08197814    -0.16100
H2996       H  0.68895493  0.16277449  0.09314033     0.09200
H2997       H  0.58650868  0.17425146  0.11776104     0.07000
H2998       H  0.60132635  0.18112003  0.09103352     0.08200
H2999       H  0.58655793  0.20553041  0.10656565     0.07300
H3000       H  0.71081353  0.19711937  0.13342705     0.02100
H3001       H  0.70139157  0.18830219  0.16170250     0.02600
H3002       H  0.70052475  0.22053335  0.15317351     0.06100
H3003       H  0.68008987  0.12392322  0.18022516     0.05100
H3004       H  0.65292047  0.13352508  0.16440407    -0.00700
H3005       H  0.67429648  0.15664944  0.17550975     0.00800
H3006       H  0.71245825  0.12822097  0.06871826     0.04500
H3007       H  0.74101729  0.11755676  0.08108881     0.06400
H3008       H  0.73551229  0.15069447  0.07803607     0.07300
C3009       C  0.45907783  0.32302374  0.11955349    -0.22300
C3010       C  0.45844885  0.34733675  0.11063669     0.09600
C3011       C  0.48086921  0.35870552  0.10346710     0.10000
C3012       C  0.50362724  0.34585334  0.10629405    -0.17300
C3013       C  0.50444059  0.32194830  0.11623243    -0.27700
C3014       C  0.48177117  0.31022362  0.12265704     0.18400
C3015       C  0.43461174  0.36150319  0.11199606     0.12300
C3016       C  0.48079420  0.38465834  0.09351724    -0.12000
H3017       H  0.52100493  0.35491258  0.10159319     0.12600
C3018       C  0.48076072  0.28511065  0.13430239    -0.22900
H3019       H  0.44180629  0.31449679  0.12529748     0.08300
C3020       C  0.41561092  0.35913110  0.09555887     0.04600
C3021       C  0.39220907  0.37045713  0.09937332    -0.20100
C3022       C  0.38732511  0.38388444  0.11939163    -0.12400
C3023       C  0.40667880  0.38637696  0.13578632     0.13300
C3024       C  0.43013766  0.37559478  0.13155484    -0.22800
C3025       C  0.41995838  0.34429504  0.07425460    -0.05900
H3026       H  0.37743523  0.36831019  0.08691937     0.14800
C3027       C  0.40316948  0.39841927  0.15871934    -0.16100
H3028       H  0.44473852  0.37699663  0.14428418     0.09200
H3029       H  0.46927524  0.27200329  0.12405381     0.07000
H3030       H  0.47199654  0.28727440  0.15123410     0.08200
H3031       H  0.49935781  0.27649644  0.13685803     0.07300
H3032       H  0.47332139  0.39820397  0.10606356     0.02100
H3033       H  0.46885352  0.38502764  0.07811707     0.02600
H3034       H  0.49990977  0.39077083  0.08868202     0.06100
H3035       H  0.40321730  0.34435580  0.06308284     0.05100
H3036       H  0.42442314  0.32457095  0.07861589    -0.00700
H3037       H  0.43583191  0.35247981  0.06468920     0.00800
H3038       H  0.40844334  0.38484230  0.17216514     0.04500
H3039       H  0.38378526  0.40424605  0.16238671     0.06400
H3040       H  0.41551324  0.41505748  0.16012387     0.07300
C3041       C  0.59172862  0.30597634  0.01840967    -0.22300
C3042       C  0.59099765  0.28312598  0.00679830     0.09600
C3043       C  0.58941491  0.26051731  0.01906023     0.10000
C3044       C  0.58941744  0.26124508  0.04281113    -0.17300
C3045       C  0.59092341  0.28407509  0.05451469    -0.27700
C3046       C  0.59124969  0.30681602  0.04213916     0.18400
C3047       C  0.59221938  0.28327579  0.98177180     0.12300
C3048       C  0.58767395  0.23568234  0.00706470    -0.12000
H3049       H  0.58881920  0.24387648  0.05230378     0.12600
C3050       C  0.59015619  0.33226500  0.05320988    -0.22900
H3051       H  0.59246376  0.32330401  0.00885461     0.08300
C3052       C  0.57118214  0.28930390  0.96842061     0.04600
C3053       C  0.57324747  0.28872604  0.94475790    -0.20100
C3054       C  0.59591031  0.28239548  0.93411121    -0.12400
C3055       C  0.61702573  0.27639265  0.94761621     0.13300
C3056       C  0.61486555  0.27698971  0.97130123    -0.22800
C3057       C  0.54649352  0.29595299  0.97913686    -0.05900
H3058       H  0.55705537  0.29336413  0.93449039     0.14800
C3059       C  0.64157307  0.26842413  0.93733222    -0.16100
H3060       H  0.63087665  0.27233102  0.98179074     0.09200
H3061       H  0.57402355  0.34291053  0.04624421     0.07000
H3062       H  0.60761279  0.34273437  0.04951774     0.08200
H3063       H  0.58755704  0.33146283  0.07179334     0.07300
H3064       H  0.60464680  0.23258408  0.99663452     0.02100
H3065       H  0.57091116  0.23548626  0.99592822     0.02600
H3066       H  0.58608228  0.21988069  0.01920583     0.06100
H3067       H  0.53183575  0.29970886  0.96621107     0.05100
H3068       H  0.54860601  0.31301992  0.98968628    -0.00700
H3069       H  0.54003757  0.28023933  0.98995618     0.00800
H3070       H  0.64983216  0.28411551  0.92757737     0.04500
H3071       H  0.63859471  0.25208058  0.92601876     0.06400
H3072       H  0.65538916  0.26289055  0.95049313     0.07300
C3073       C  0.65707146  0.29837629  0.22926111    -0.22300
C3074       C  0.66593618  0.32241050  0.23451166     0.09600
C3075       C  0.66596910  0.34113044  0.21761521     0.10000
C3076       C  0.65561172  0.33587540  0.19631168    -0.17300
C3077       C  0.64528231  0.31235991  0.19149833    -0.27700
C3078       C  0.64661307  0.29310684  0.20792226     0.18400
C3079       C  0.67112824  0.32905592  0.25846265     0.12300
C3080       C  0.67559881  0.36709943  0.22248566    -0.12000
H3081       H  0.65435242  0.35060274  0.18370842     0.12600
C3082       C  0.63581973  0.26739191  0.20404105    -0.22900
H3083       H  0.65694934  0.28409670  0.24231467     0.08300
C3084       C  0.65124859  0.33544276  0.27307120     0.04600
C3085       C  0.65656591  0.34611263  0.29419936    -0.20100
C3086       C  0.68125791  0.35078540  0.30108722    -0.12400
C3087       C  0.70128617  0.34330169  0.28691204     0.13300
C3088       C  0.69590429  0.33232046  0.26578452    -0.22800
C3089       C  0.62435027  0.33226677  0.26587413    -0.05900
H3090       H  0.64126997  0.35194145  0.30504613     0.14800
C3091       C  0.72835474  0.34805621  0.29268667    -0.16100
H3092       H  0.71110101  0.32755911  0.25442520     0.09200
H3093       H  0.62081106  0.26378163  0.21660509     0.07000
H3094       H  0.65075594  0.25312441  0.20620494     0.08200
H3095       H  0.62771989  0.26501905  0.18688648     0.07300
H3096       H  0.69567125  0.36616336  0.22726450     0.02100
H3097       H  0.66481783  0.37558645  0.23659592     0.02600
H3098       H  0.67384408  0.37956513  0.20750453     0.06100
H3099       H  0.61115380  0.33867900  0.27918360     0.05100
H3100       H  0.62046505  0.31221572  0.26242795    -0.00700
H3101       H  0.62066153  0.34336042  0.25031300     0.00800
H3102       H  0.73858842  0.32996737  0.29329198     0.04500
H3103       H  0.73100441  0.35758120  0.30915834     0.06400
H3104       H  0.73687582  0.36005237  0.27941916     0.07300
C3105       C  0.50477736  0.24565347  0.27633932    -0.22300
C3106       C  0.49563364  0.25414093  0.25542330     0.09600
C3107       C  0.47148282  0.26470627  0.25413940     0.10000
C3108       C  0.45760715  0.26777831  0.27402064    -0.17300
C3109       C  0.46739277  0.26105900  0.29524388    -0.27700
C3110       C  0.49127884  0.24955172  0.29642655     0.18400
C3111       C  0.51306800  0.25630625  0.23605508     0.12300
C3112       C  0.46099376  0.27434153  0.23206394    -0.12000
H3113       H  0.43962883  0.27705212  0.27319920     0.12600
C3114       C  0.50429230  0.24327193  0.31840225    -0.22900
H3115       H  0.52348627  0.23784339  0.27722569     0.08300
C3116       C  0.53115660  0.27547588  0.23570947     0.04600
C3117       C  0.54482741  0.27968244  0.21593401    -0.20100
C3118       C  0.54034653  0.26594107  0.19594874    -0.12400
C3119       C  0.52293370  0.24584259  0.19670460     0.13300
C3120       C  0.50968685  0.24121874  0.21687508    -0.22800
C3121       C  0.53513700  0.29253019  0.25578898    -0.05900
H3122       H  0.55840709  0.29473393  0.21592465     0.14800
C3123       C  0.51732854  0.22974100  0.17636944    -0.16100
H3124       H  0.49574318  0.22650822  0.21741138     0.09200
H3125       H  0.52227584  0.25363317  0.31937512     0.07000
H3126       H  0.50829455  0.22288343  0.31898342     0.08200
H3127       H  0.49343657  0.24825180  0.33365571     0.07300
H3128       H  0.45936266  0.25874003  0.21974252     0.02100
H3129       H  0.47349392  0.28899449  0.22503177     0.02600
H3130       H  0.44210602  0.28268303  0.23426036     0.06100
H3131       H  0.54933783  0.30718835  0.25226711     0.05100
H3132       H  0.54176691  0.28152906  0.27056440    -0.00700
H3133       H  0.51732485  0.30207782  0.26016959     0.00800
H3134       H  0.50328301  0.21504896  0.18026294     0.04500
H3135       H  0.53464758  0.22016438  0.17066738     0.06400
H3136       H  0.50961546  0.24140523  0.16246803     0.07300
C3137       C  0.82288642  0.63555072  0.84134821    -0.22300
C3138       C  0.82670296  0.65583309  0.85602016     0.09600
C3139       C  0.81009981  0.65979822  0.87420777     0.10000
C3140       C  0.78987144  0.64352811  0.87721156    -0.17300
C3141       C  0.78543893  0.62359648  0.86223947    -0.27700
C3142       C  0.80224216  0.61947187  0.84402245     0.18400
C3143       C  0.84659381  0.67434158  0.85117323     0.12300
C3144       C  0.81322585  0.68176727  0.89001478    -0.12000
H3145       H  0.77690386  0.64685251  0.89099544     0.12600
C3146       C  0.79831647  0.59955530  0.82626027    -0.22900
H3147       H  0.83549124  0.63288762  0.82718248     0.08300
C3148       C  0.86996712  0.67353010  0.86227360     0.04600
C3149       C  0.88578381  0.69453290  0.86131587    -0.20100
C3150       C  0.87851298  0.71626529  0.84960913    -0.12400
C3151       C  0.85623463  0.71589879  0.83655165     0.13300
C3152       C  0.84045135  0.69502205  0.83770098    -0.22800
C3153       C  0.87761728  0.65094593  0.87588659    -0.05900
H3154       H  0.90298529  0.69462824  0.87106489     0.14800
C3155       C  0.84839817  0.73727479  0.82144531    -0.16100
H3156       H  0.82266221  0.69534722  0.82883598     0.09200
H3157       H  0.81438083  0.58636286  0.82646100     0.07000
H3158       H  0.79719956  0.60847347  0.80929316     0.08200
H3159       H  0.78094072  0.58864975  0.82856759     0.07300
H3160       H  0.81206596  0.69953641  0.88030791     0.02100
H3161       H  0.83166643  0.68070277  0.89862140     0.02600
H3162       H  0.79849282  0.68216831  0.90325135     0.06100
H3163       H  0.89647553  0.65332615  0.88351107     0.05100
H3164       H  0.87805493  0.63421681  0.86473028    -0.00700
H3165       H  0.86405690  0.64769241  0.88978834     0.00800
H3166       H  0.84506682  0.73017672  0.80401875     0.04500
H3167       H  0.86287882  0.75199934  0.82017776     0.06400
H3168       H  0.83083615  0.74574510  0.82792564     0.07300
C3169       C  0.70800635  0.65937231  0.76487685    -0.22300
C3170       C  0.68368131  0.66437140  0.75711661     0.09600
C3171       C  0.66289533  0.65734469  0.77042627     0.10000
C3172       C  0.66692983  0.64537452  0.79115604    -0.17300
C3173       C  0.69112768  0.63961482  0.79860648    -0.27700
C3174       C  0.71202482  0.64683330  0.78549899     0.18400
C3175       C  0.67977001  0.67286764  0.73357848     0.12300
C3176       C  0.63639388  0.66088609  0.76211815    -0.12000
H3177       H  0.65102859  0.63932625  0.80115366     0.12600
C3178       C  0.73852334  0.64038701  0.79208710    -0.22900
H3179       H  0.72384165  0.66418304  0.75428676     0.08300
C3180       C  0.67153137  0.69734321  0.72847600     0.04600
C3181       C  0.66067304  0.70210861  0.70720172    -0.20100
C3182       C  0.65818331  0.68286098  0.69119817    -0.12400
C3183       C  0.66912629  0.65921810  0.69546400     0.13300
C3184       C  0.67979492  0.65451333  0.71666432    -0.22800
C3185       C  0.67338724  0.71801112  0.74574637    -0.05900
H3186       H  0.65245218  0.72027257  0.70372845     0.14800
C3187       C  0.66873440  0.63820210  0.67839459    -0.16100
H3188       H  0.68651236  0.63583120  0.72057740     0.09200
H3189       H  0.74962736  0.65784537  0.79376532     0.07000
H3190       H  0.74706132  0.62850776  0.77873095     0.08200
H3191       H  0.73977024  0.63007319  0.80834296     0.07300
H3192       H  0.63367249  0.65064791  0.74593560     0.02100
H3193       H  0.63240867  0.68102524  0.75937803     0.02600
H3194       H  0.62249504  0.65367294  0.77446301     0.06100
H3195       H  0.66606538  0.73599826  0.73899589     0.05100
H3196       H  0.69329132  0.72076063  0.75052945    -0.00700
H3197       H  0.66257839  0.71321366  0.76115629     0.00800
H3198       H  0.68815630  0.63171230  0.67521702     0.04500
H3199       H  0.66069375  0.64394355  0.66188067     0.06400
H3200       H  0.65760352  0.62230797  0.68509984     0.07300
C3201       C  0.74440190  0.52757902  0.75806352    -0.22300
C3202       C  0.75383034  0.50333377  0.76104971     0.09600
C3203       C  0.76087852  0.49525461  0.78290514     0.10000
C3204       C  0.75556217  0.51060166  0.80165951    -0.17300
C3205       C  0.74339196  0.53374654  0.79883723    -0.27700
C3206       C  0.73944374  0.54307371  0.77665456     0.18400
C3207       C  0.75113049  0.48561806  0.74190137     0.12300
C3208       C  0.77300753  0.47008773  0.78642166    -0.12000
H3209       H  0.75917116  0.50366401  0.81860704     0.12600
C3210       C  0.72957987  0.56904494  0.77198473    -0.22900
H3211       H  0.73951112  0.53393042  0.74117493     0.08300
C3212       C  0.72904846  0.47146137  0.73978867     0.04600
C3213       C  0.72464379  0.45807369  0.71986865    -0.20100
C3214       C  0.74135610  0.45873363  0.70139862    -0.12400
C3215       C  0.76415357  0.47215118  0.70400430     0.13300
C3216       C  0.76868550  0.48544371  0.72427870    -0.22800
C3217       C  0.70928910  0.47158270  0.75805990    -0.05900
H3218       H  0.70717719  0.44797632  0.71846654     0.14800
C3219       C  0.78339433  0.47345726  0.68544556    -0.16100
H3220       H  0.78551174  0.49658462  0.72606240     0.09200
H3221       H  0.71080529  0.56781308  0.76398482     0.07000
H3222       H  0.74245444  0.57885905  0.76021991     0.08200
H3223       H  0.72828833  0.58074103  0.78744387     0.07300
H3224       H  0.79077463  0.46925886  0.77673877     0.02100
H3225       H  0.76048703  0.45490404  0.78044894     0.02600
H3226       H  0.77734731  0.46666194  0.80456519     0.06100
H3227       H  0.69292130  0.45982983  0.75344677     0.05100
H3228       H  0.70247713  0.49097351  0.76088802    -0.00700
H3229       H  0.71712503  0.46416104  0.77411287     0.00800
H3230       H  0.77522425  0.48255179  0.67022573     0.04500
H3231       H  0.78995791  0.45430654  0.68116950     0.06400
H3232       H  0.79999893  0.48457512  0.69062562     0.07300
C3233       C  0.64145455  0.47051585  0.87659693    -0.22300
C3234       C  0.65764009  0.44990117  0.87626004     0.09600
C3235       C  0.68373476  0.45379757  0.87616816     0.10000
C3236       C  0.69308312  0.47830559  0.87498363    -0.17300
C3237       C  0.67690296  0.49898399  0.87337991    -0.27700
C3238       C  0.65070519  0.49506992  0.87514141     0.18400
C3239       C  0.64692810  0.42455699  0.87321192     0.12300
C3240       C  0.70167180  0.43202763  0.87666551    -0.12000
H3241       H  0.71311573  0.48118033  0.87386509     0.12600
C3242       C  0.63233255  0.51653647  0.87545870    -0.22900
H3243       H  0.62143325  0.46729595  0.87691711     0.08300
C3244       C  0.63671111  0.41072579  0.89131923     0.04600
C3245       C  0.62704690  0.38666010  0.88716547    -0.20100
C3246       C  0.62729600  0.37636031  0.86527998    -0.12400
C3247       C  0.63798204  0.39017429  0.84723774     0.13300
C3248       C  0.64727280  0.41421991  0.85142628    -0.22800
C3249       C  0.63623598  0.42130647  0.91493571    -0.05900
H3250       H  0.61907564  0.37593487  0.90096582     0.14800
C3251       C  0.64094763  0.37991308  0.82355715    -0.16100
H3252       H  0.65535537  0.42487614  0.83761444     0.09200
H3253       H  0.63766831  0.53011949  0.88885865     0.07000
H3254       H  0.61302013  0.51001330  0.87907213     0.08200
H3255       H  0.63182983  0.52605612  0.85877512     0.07300
H3256       H  0.69894938  0.42013483  0.86144835     0.02100
H3257       H  0.69832880  0.42063219  0.89209294     0.02600
H3258       H  0.72145672  0.43836038  0.87689418     0.06100
H3259       H  0.62786146  0.40795389  0.92718426     0.05100
H3260       H  0.62498275  0.43878115  0.91519800    -0.00700
H3261       H  0.65560709  0.42554267  0.92056240     0.00800
H3262       H  0.63004612  0.39157284  0.81149199     0.04500
H3263       H  0.63481413  0.36023732  0.82177048     0.06400
H3264       H  0.66099660  0.38055282  0.81867374     0.07300
C3265       C  0.80914937  0.65667469  0.14738614    -0.22300
C3266       C  0.82985344  0.64873059  0.13483128     0.09600
C3267       C  0.82958809  0.62480808  0.12464556     0.10000
C3268       C  0.80751169  0.61040522  0.12542265    -0.17300
C3269       C  0.78592165  0.61944833  0.13632034    -0.27700
C3270       C  0.78724403  0.64236515  0.14838173     0.18400
C3271       C  0.84994895  0.66735997  0.13081972     0.12300
C3272       C  0.85251395  0.61455260  0.11310365    -0.12000
H3273       H  0.80678086  0.59257518  0.11667934     0.12600
C3274       C  0.76567704  0.65198909  0.16236789    -0.22900
H3275       H  0.80974630  0.67482701  0.15559994     0.08300
C3276       C  0.84928308  0.68271553  0.11132976     0.04600
C3277       C  0.86474975  0.70386776  0.11025538    -0.20100
C3278       C  0.88046760  0.71041910  0.12834002    -0.12400
C3279       C  0.88181140  0.69467491  0.14755626     0.13300
C3280       C  0.86655482  0.67322805  0.14850881    -0.22800
C3281       C  0.83099132  0.67789576  0.09232689    -0.05900
H3282       H  0.86372297  0.71609682  0.09561580     0.14800
C3283       C  0.89799009  0.70065663  0.16776222    -0.16100
H3284       H  0.86660542  0.66177348  0.16366892     0.09200
H3285       H  0.74982286  0.65738356  0.15126700     0.07000
H3286       H  0.77095221  0.66886757  0.17227066     0.08200
H3287       H  0.75958372  0.63736576  0.17453444     0.07300
H3288       H  0.86810512  0.61339134  0.12551005     0.02100
H3289       H  0.85826920  0.62685359  0.09893400     0.02600
H3290       H  0.84916693  0.59550543  0.10618593     0.06100
H3291       H  0.83255184  0.69216332  0.07871536     0.05100
H3292       H  0.81156222  0.67844321  0.09892087    -0.00700
H3293       H  0.83452201  0.65932425  0.08461030     0.00800
H3294       H  0.88603319  0.70293843  0.18298759     0.04500
H3295       H  0.90898182  0.71807239  0.16556828     0.06400
H3296       H  0.91131474  0.68503954  0.17075025     0.07300
C3297       C  0.62695590  0.42162309  0.13171108    -0.22300
C3298       C  0.63879391  0.42690554  0.11113347     0.09600
C3299       C  0.64023749  0.40822676  0.09428940     0.10000
C3300       C  0.62998525  0.38446874  0.09861189    -0.17300
C3301       C  0.61846808  0.37906346  0.11942207    -0.27700
C3302       C  0.61708366  0.39792730  0.13628030     0.18400
C3303       C  0.65171726  0.45131722  0.10908639     0.12300
C3304       C  0.65250764  0.41339605  0.07184301    -0.12000
H3305       H  0.63120028  0.36995417  0.08581945     0.12600
C3306       C  0.60699085  0.39363701  0.15985100    -0.22900
H3307       H  0.62648434  0.43586328  0.14481374     0.08300
C3308       C  0.63829081  0.47402670  0.10841157     0.04600
C3309       C  0.65111016  0.49663871  0.11172988    -0.20100
C3310       C  0.67703252  0.49711738  0.11591551    -0.12400
C3311       C  0.69068144  0.47430283  0.11524752     0.13300
C3312       C  0.67776182  0.45178609  0.11167735    -0.22800
C3313       C  0.61038790  0.47434622  0.10470367    -0.05900
H3314       H  0.64063613  0.51403259  0.11205753     0.14800
C3315       C  0.71837447  0.47223151  0.11985553    -0.16100
H3316       H  0.68792811  0.43421851  0.11247257     0.09200
H3317       H  0.59034319  0.40570805  0.16257887     0.07000
H3318       H  0.62153301  0.39872464  0.17249929     0.08200
H3319       H  0.60173169  0.37404213  0.16341109     0.07300
H3320       H  0.67253096  0.41807894  0.07439922     0.02100
H3321       H  0.64297065  0.42935827  0.06341063     0.02600
H3322       H  0.65148542  0.39692536  0.06039347     0.06100
H3323       H  0.60292641  0.49374941  0.10405511     0.05100
H3324       H  0.60075953  0.46439723  0.11868258    -0.00700
H3325       H  0.60587319  0.46500645  0.08840241     0.00800
H3326       H  0.72151066  0.45964540  0.13456818     0.04500
H3327       H  0.72760227  0.49016299  0.12375545     0.06400
H3328       H  0.72778891  0.46403686  0.10483145     0.07300
C3329       C  0.70954571  0.56701466  0.97441551    -0.22300
C3330       C  0.71674844  0.58884175  0.98588804     0.09600
C3331       C  0.72367570  0.61026464  0.97340429     0.10000
C3332       C  0.72321514  0.60938400  0.94965494    -0.17300
C3333       C  0.71633994  0.58747143  0.93808890    -0.27700
C3334       C  0.70923902  0.56603086  0.95062835     0.18400
C3335       C  0.71684039  0.58893483  0.01100269     0.12300
C3336       C  0.73130649  0.63412093  0.98514414    -0.12000
H3337       H  0.72862246  0.62579341  0.94003240     0.12600
C3338       C  0.70052333  0.54240684  0.93907846    -0.22900
H3339       H  0.70413790  0.55069864  0.98416339     0.08300
C3340       C  0.69446741  0.59097743  0.02352658     0.04600
C3341       C  0.69557874  0.59136633  0.04728412    -0.20100
C3342       C  0.71855019  0.58980475  0.05877246    -0.12400
C3343       C  0.74103213  0.58850397  0.04615226     0.13300
C3344       C  0.73981004  0.58764388  0.02242851    -0.22800
C3345       C  0.66948409  0.59299958  0.01182172    -0.05900
H3346       H  0.67839894  0.59250179  0.05696294     0.14800
C3347       C  0.76663462  0.58910483  0.05694897    -0.16100
H3348       H  0.75697082  0.58646912  0.01271322     0.09200
H3349       H  0.69430062  0.52810037  0.95150237     0.07000
H3350       H  0.71598859  0.53411157  0.92906380     0.08200
H3351       H  0.68449940  0.54667796  0.92770998     0.07300
H3352       H  0.74829647  0.63081381  0.99555559     0.02100
H3353       H  0.71589352  0.64068047  0.99624862     0.02600
H3354       H  0.73560943  0.64924403  0.97284367     0.06100
H3355       H  0.65392541  0.59498012  0.02414245     0.05100
H3356       H  0.66598115  0.57594456  0.00156481    -0.00700
H3357       H  0.66933043  0.60965257  0.00056350     0.00800
H3358       H  0.77663683  0.57134418  0.05327270     0.04500
H3359       H  0.76615619  0.59188816  0.07552648     0.06400
H3360       H  0.77752563  0.60491041  0.04975424     0.07300
C3361       C  0.68461182  0.66826076  0.22343493    -0.22300
C3362       C  0.67901492  0.65352295  0.24242596     0.09600
C3363       C  0.68008936  0.62719571  0.24077127     0.10000
C3364       C  0.68637457  0.61625410  0.22005486    -0.17300
C3365       C  0.69014714  0.63078875  0.20047965    -0.27700
C3366       C  0.69000913  0.65723890  0.20235282     0.18400
C3367       C  0.66668417  0.66532376  0.26208037     0.12300
C3368       C  0.67241300  0.61046903  0.26019208    -0.12000
H3369       H  0.68681760  0.59600144  0.21885029     0.12600
C3370       C  0.69384449  0.67395416  0.18211315    -0.22900
H3371       H  0.68314977  0.68844776  0.22481185     0.08300
C3372       C  0.67832832  0.66751708  0.28343015     0.04600
C3373       C  0.66356960  0.67303336  0.30248791    -0.20100
C3374       C  0.63760316  0.67676692  0.30040649    -0.12400
C3375       C  0.62671258  0.67729568  0.27851286     0.13300
C3376       C  0.64138462  0.67139732  0.25968531    -0.22800
C3377       C  0.70618961  0.66429209  0.28599443    -0.05900
H3378       H  0.67217081  0.67350069  0.31911077     0.14800
C3379       C  0.59972991  0.68418355  0.27469710    -0.16100
H3380       H  0.63278867  0.67027609  0.24306719     0.09200
H3381       H  0.71284966  0.67100462  0.17509720     0.07000
H3382       H  0.69212390  0.69406939  0.18663085     0.08200
H3383       H  0.67957496  0.66976361  0.16895974     0.07300
H3384       H  0.65280835  0.61461577  0.26513044     0.02100
H3385       H  0.68478167  0.61339613  0.27501154     0.02600
H3386       H  0.67347590  0.59033256  0.25557724     0.06100
H3387       H  0.71224175  0.66677062  0.30385970     0.05100
H3388       H  0.71592014  0.67850657  0.27550369    -0.00700
H3389       H  0.71215745  0.64543482  0.28036395     0.00800
H3390       H  0.59523668  0.68605404  0.25639366     0.04500
H3391       H  0.59574853  0.70245799  0.28291431     0.06400
H3392       H  0.58731154  0.66946315  0.28164200     0.07300
C3393       C  0.75415366  0.49160733  0.21630179    -0.22300
C3394       C  0.74517030  0.50064557  0.23705640     0.09600
C3395       C  0.73434235  0.52470448  0.23810361     0.10000
C3396       C  0.73063718  0.53818830  0.21803568    -0.17300
C3397       C  0.73712672  0.52807986  0.19684898    -0.27700
C3398       C  0.75016056  0.50497972  0.19608329     0.18400
C3399       C  0.74243565  0.48309097  0.25633866     0.12300
C3400       C  0.72513224  0.53546159  0.26018491    -0.12000
H3401       H  0.72119487  0.55615130  0.21877097     0.12600
C3402       C  0.75811727  0.49335579  0.17401995    -0.22900
H3403       H  0.76255748  0.47313689  0.21572204     0.08300
C3404       C  0.72261132  0.46572074  0.25650158     0.04600
C3405       C  0.71762040  0.45220068  0.27625012    -0.20100
C3406       C  0.73139027  0.45599829  0.29634231    -0.12400
C3407       C  0.75225296  0.47252674  0.29572043     0.13300
C3408       C  0.75749996  0.48577112  0.27563369    -0.22800
C3409       C  0.70576265  0.46235504  0.23618045    -0.05900
H3410       H  0.70200951  0.43927963  0.27612387     0.14800
C3411       C  0.76860478  0.47716865  0.31610852    -0.16100
H3412       H  0.77272211  0.49915581  0.27524955     0.09200
H3413       H  0.74147369  0.49033464  0.16313998     0.07000
H3414       H  0.76738055  0.47494716  0.17660131     0.08200
H3415       H  0.77159797  0.50582430  0.16527086     0.07300
H3416       H  0.74099709  0.53729679  0.27222304     0.02100
H3417       H  0.71070466  0.52299766  0.26762320     0.02600
H3418       H  0.71667417  0.55430130  0.25787829     0.06100
H3419       H  0.69065725  0.44856049  0.23945106     0.05100
H3420       H  0.71680889  0.45549979  0.22154418    -0.00700
H3421       H  0.69682171  0.48047738  0.23171686     0.00800
H3422       H  0.78398562  0.49048030  0.31229332     0.04500
H3423       H  0.77729480  0.45932860  0.32173975     0.06400
H3424       H  0.75733889  0.48538330  0.33003211     0.07300
C3425       C  0.34397082  0.80546775  0.88106526    -0.22300
C3426       C  0.34530733  0.82000209  0.86138205     0.09600
C3427       C  0.36418847  0.81514749  0.84530893     0.10000
C3428       C  0.38034020  0.79463134  0.84859619    -0.17300
C3429       C  0.37785206  0.77897362  0.86758938    -0.27700
C3430       C  0.36016663  0.78521286  0.88454828     0.18400
C3431       C  0.32516981  0.83855860  0.85737617     0.12300
C3432       C  0.36678572  0.83120519  0.82449963    -0.12000
H3433       H  0.39400670  0.79000651  0.83571162     0.12600
C3434       C  0.35782909  0.77102071  0.90654813    -0.22900
H3435       H  0.32970279  0.80958767  0.89357165     0.08300
C3436       C  0.30268955  0.83130316  0.84675333     0.04600
C3437       C  0.28236567  0.84786625  0.84656643    -0.20100
C3438       C  0.28357501  0.87131542  0.85735129    -0.12400
C3439       C  0.30651091  0.87889235  0.86747336     0.13300
C3440       C  0.32709711  0.86245143  0.86700846    -0.22800
C3441       C  0.29973419  0.80557940  0.83656597    -0.05900
H3442       H  0.26493696  0.84196823  0.83880532     0.14800
C3443       C  0.30985440  0.90305100  0.88037053    -0.16100
H3444       H  0.34435690  0.86772257  0.87542394     0.09200
H3445       H  0.33928718  0.76170286  0.90731479     0.07000
H3446       H  0.35939858  0.78430782  0.92094908     0.08200
H3447       H  0.37265956  0.75675478  0.90894307     0.07300
H3448       H  0.37037462  0.85088634  0.82960158     0.02100
H3449       H  0.34934796  0.83046222  0.81429971     0.02600
H3450       H  0.38251974  0.82488051  0.81364455     0.06100
H3451       H  0.28084458  0.80288732  0.82908784     0.05100
H3452       H  0.30247860  0.79109373  0.84983019    -0.00700
H3453       H  0.31375169  0.80275954  0.82296835     0.00800
H3454       H  0.31612704  0.89880899  0.89790187     0.04500
H3455       H  0.29269458  0.91441418  0.88183604     0.06400
H3456       H  0.32440235  0.91458283  0.87195877     0.07300
C3457       C  0.47193384  0.72745548  0.75622751    -0.22300
C3458       C  0.49623882  0.73669969  0.75913386     0.09600
C3459       C  0.50388177  0.74537783  0.78060374     0.10000
C3460       C  0.48791974  0.74211412  0.79926439    -0.17300
C3461       C  0.46459659  0.73023706  0.79680133    -0.27700
C3462       C  0.45581712  0.72448552  0.77473152     0.18400
C3463       C  0.51440593  0.73284159  0.74054670     0.12300
C3464       C  0.52937004  0.75678863  0.78394200    -0.12000
H3465       H  0.49456570  0.74697442  0.81605544     0.12600
C3466       C  0.42979628  0.71479015  0.77011762    -0.22900
H3467       H  0.46594462  0.72131461  0.73956600     0.08300
C3468       C  0.52737889  0.70996522  0.73882092     0.04600
C3469       C  0.54242101  0.70542791  0.71991045    -0.20100
C3470       C  0.54471533  0.72302202  0.70224376    -0.12400
C3471       C  0.53262320  0.74663123  0.70465363     0.13300
C3472       C  0.51755774  0.75115130  0.72381403    -0.22800
C3473       C  0.52476101  0.68993049  0.75668772    -0.05900
H3474       H  0.55161329  0.68740208  0.71860584     0.14800
C3475       C  0.53535472  0.76720180  0.68735948    -0.16100
H3476       H  0.50767432  0.76878080  0.72550138     0.09200
H3477       H  0.43083615  0.69526317  0.76372996     0.07000
H3478       H  0.42068093  0.72667154  0.75705118     0.08200
H3479       H  0.41757253  0.71534271  0.78525449     0.07300
H3480       H  0.53122146  0.77360771  0.77302040     0.02100
H3481       H  0.54412069  0.74307414  0.77933737     0.02600
H3482       H  0.53245091  0.76257288  0.80179959     0.06100
H3483       H  0.53619438  0.67312531  0.75271879     0.05100
H3484       H  0.50492311  0.68396701  0.75794857    -0.00700
H3485       H  0.53101667  0.69727664  0.77334210     0.00800
H3486       H  0.52652802  0.76156515  0.67112577     0.04500
H3487       H  0.55548015  0.77140299  0.68468932     0.06400
H3488       H  0.52606626  0.78475728  0.69294067     0.07300
C3489       C  0.34898627  0.66857599  0.71998972    -0.22300
C3490       C  0.32898222  0.66903143  0.73527609     0.09600
C3491       C  0.30496109  0.66146325  0.72811459     0.10000
C3492       C  0.30202911  0.65130805  0.70630808    -0.17300
C3493       C  0.32264607  0.64873994  0.69179438    -0.27700
C3494       C  0.34612213  0.65851748  0.69828614     0.18400
C3495       C  0.33501829  0.67369624  0.75932186     0.12300
C3496       C  0.28274703  0.66347792  0.74366343    -0.12000
H3497       H  0.28404734  0.64380580  0.70117970     0.12600
C3498       C  0.36870158  0.65774238  0.68300981    -0.22900
H3499       H  0.36734913  0.67471650  0.72551555     0.08300
C3500       C  0.34127285  0.65345128  0.77363090     0.04600
C3501       C  0.35231694  0.65832241  0.79464403    -0.20100
C3502       C  0.35789724  0.68283325  0.80146757    -0.12400
C3503       C  0.35056298  0.70322977  0.78765086     0.13300
C3504       C  0.33902657  0.69833433  0.76669963    -0.22800
C3505       C  0.33802768  0.62662701  0.76611352    -0.05900
H3506       H  0.35804299  0.64278019  0.80529930     0.14800
C3507       C  0.35608358  0.73011567  0.79358620    -0.16100
H3508       H  0.33453816  0.71375507  0.75545383     0.09200
H3509       H  0.38353027  0.64602421  0.69086474     0.07000
H3510       H  0.37601152  0.67701818  0.68063846     0.08200
H3511       H  0.36443147  0.65008113  0.66598723     0.07300
H3512       H  0.27995571  0.68335558  0.74854479     0.02100
H3513       H  0.28579808  0.65222569  0.75920525     0.02600
H3514       H  0.26535269  0.65672077  0.73536337     0.06100
H3515       H  0.34444706  0.61319648  0.77927006     0.05100
H3516       H  0.34908887  0.62314348  0.75053033    -0.00700
H3517       H  0.31804771  0.62267971  0.76258841     0.00800
H3518       H  0.36807825  0.73850586  0.78025870     0.04500
H3519       H  0.36590049  0.73229443  0.80998536     0.06400
H3520       H  0.33827929  0.74079704  0.79448653     0.07300
C3521       C  0.52856094  0.63531927  0.88401927    -0.22300
C3522       C  0.54953521  0.64826300  0.87592841     0.09600
C3523       C  0.54646196  0.67236237  0.86641853     0.10000
C3524       C  0.52246026  0.68303846  0.86541438    -0.17300
C3525       C  0.50133853  0.66965558  0.87256544    -0.27700
C3526       C  0.50442199  0.64559908  0.88217043     0.18400
C3527       C  0.57396907  0.63508398  0.87499350     0.12300
C3528       C  0.56817657  0.68611798  0.85594162    -0.12000
H3529       H  0.51994777  0.70124669  0.85760035     0.12600
C3530       C  0.48228527  0.63069274  0.89027480    -0.22900
H3531       H  0.53101786  0.61669569  0.89098390     0.08300
C3532       C  0.59325465  0.63963984  0.89076510     0.04600
C3533       C  0.61682156  0.62846436  0.88749376    -0.20100
C3534       C  0.62145340  0.61232529  0.86906802    -0.12400
C3535       C  0.60134103  0.60664082  0.85407259     0.13300
C3536       C  0.57800781  0.61819817  0.85726993    -0.22800
C3537       C  0.58885970  0.65602050  0.91115047    -0.05900
H3538       H  0.63180495  0.63262503  0.89929299     0.14800
C3539       C  0.60421848  0.58930823  0.83405598    -0.16100
H3540       H  0.56287027  0.61457831  0.84546382     0.09200
H3541       H  0.47183057  0.64159406  0.90318276     0.07000
H3542       H  0.48809583  0.61265436  0.89804068     0.08200
H3543       H  0.46973844  0.62636547  0.87581500     0.07300
H3544       H  0.57624912  0.67471770  0.84202523     0.02100
H3545       H  0.58287486  0.68971609  0.86878466     0.02600
H3546       H  0.56233566  0.70443448  0.84874532     0.06100
H3547       H  0.60584078  0.65742979  0.92194232     0.05100
H3548       H  0.57355011  0.64799623  0.92154710    -0.00700
H3549       H  0.58350470  0.67519690  0.90585101     0.00800
H3550       H  0.60917913  0.57021298  0.83999661     0.04500
H3551       H  0.61886624  0.59652716  0.82245812     0.06400
H3552       H  0.58662694  0.58767568  0.82412015     0.07300
C3553       C  0.38846412  0.57191980  0.88363700    -0.22300
C3554       C  0.36604995  0.56561677  0.87265726     0.09600
C3555       C  0.35245535  0.58419086  0.86094093     0.10000
C3556       C  0.36175887  0.60868385  0.86024047    -0.17300
C3557       C  0.38456182  0.61493770  0.87063006    -0.27700
C3558       C  0.39789880  0.59644034  0.88283334     0.18400
C3559       C  0.35776424  0.53920265  0.87232612     0.12300
C3560       C  0.32859632  0.57795029  0.84852365    -0.12000
H3561       H  0.35165531  0.62285665  0.85075406     0.12600
C3562       C  0.42169895  0.60199033  0.89554224    -0.22900
H3563       H  0.39877541  0.55755089  0.89267421     0.08300
C3564       C  0.36758268  0.52222175  0.85641420     0.04600
C3565       C  0.35753816  0.49807588  0.85504331    -0.20100
C3566       C  0.33780488  0.49038838  0.86918289    -0.12400
C3567       C  0.32890967  0.50711633  0.88602467     0.13300
C3568       C  0.33881030  0.53145500  0.88711257    -0.22800
C3569       C  0.38806867  0.52988093  0.84033313    -0.05900
H3570       H  0.36451652  0.48545904  0.84213052     0.14800
C3571       C  0.30963642  0.50003181  0.90348744    -0.16100
H3572       H  0.33160845  0.54456645  0.89952188     0.09200
H3573       H  0.43727038  0.59081639  0.88829191     0.07000
H3574       H  0.41934111  0.59682691  0.91363091     0.08200
H3575       H  0.42686575  0.62204700  0.89500528     0.07300
H3576       H  0.31447852  0.57074893  0.86064311     0.02100
H3577       H  0.33234724  0.56346042  0.83547219     0.02600
H3578       H  0.32055818  0.59460869  0.83990037     0.06100
H3579       H  0.39334701  0.51440257  0.82871627     0.05100
H3580       H  0.40498367  0.53537244  0.85006214    -0.00700
H3581       H  0.38173317  0.54597942  0.82988918     0.00800
H3582       H  0.31715055  0.50399009  0.92066765     0.04500
H3583       H  0.30467075  0.47995047  0.90321724     0.06400
H3584       H  0.29242808  0.51133282  0.90088331     0.07300
C3585       C  0.32065060  0.85377867  0.15108000    -0.22300
C3586       C  0.32254450  0.83250951  0.13725612     0.09600
C3587       C  0.30345742  0.82717663  0.12148192     0.10000
C3588       C  0.28284518  0.84320499  0.11986887    -0.17300
C3589       C  0.28056143  0.86438595  0.13380005    -0.27700
C3590       C  0.29971675  0.86974992  0.14973795     0.18400
C3591       C  0.34351211  0.81471250  0.14031157     0.12300
C3592       C  0.30461696  0.80425850  0.10658525    -0.12000
H3593       H  0.26821426  0.83903980  0.10769308     0.12600
C3594       C  0.29824435  0.89111835  0.16636291    -0.22900
H3595       H  0.33520794  0.85750337  0.16343583     0.08300
C3596       C  0.36481661  0.81539546  0.12626482     0.04600
C3597       C  0.38110644  0.79472249  0.12587823    -0.20100
C3598       C  0.37639312  0.77348925  0.13923709    -0.12400
C3599       C  0.35652095  0.77413804  0.15513090     0.13300
C3600       C  0.34011488  0.79459969  0.15517397    -0.22800
C3601       C  0.36967969  0.83747748  0.11105630    -0.05900
H3602       H  0.39660677  0.79449647  0.11406568     0.14800
C3603       C  0.35197760  0.75364779  0.17224410    -0.16100
H3604       H  0.32395903  0.79441567  0.16626826     0.09200
H3605       H  0.31391629  0.90430592  0.16328210     0.07000
H3606       H  0.29986731  0.88369010  0.18387515     0.08200
H3607       H  0.28045622  0.90166351  0.16543986     0.07300
H3608       H  0.30520310  0.78713221  0.11722944     0.02100
H3609       H  0.32161418  0.80493292  0.09583966     0.02600
H3610       H  0.28808129  0.80288956  0.09523481     0.06100
H3611       H  0.38716653  0.83505692  0.10115947     0.05100
H3612       H  0.37153085  0.85468783  0.12147186    -0.00700
H3613       H  0.35395135  0.83990432  0.09895499     0.00800
H3614       H  0.35100882  0.76193788  0.18947247     0.04500
H3615       H  0.36709877  0.73946047  0.17269999     0.06400
H3616       H  0.33394091  0.74420339  0.16849877     0.07300
C3617       C  0.52877738  0.63324692  0.10713360    -0.22300
C3618       C  0.55004299  0.64548520  0.11555138     0.09600
C3619       C  0.54777436  0.66997035  0.12431646     0.10000
C3620       C  0.52403562  0.68113348  0.12567422    -0.17300
C3621       C  0.50247261  0.66816890  0.11886432    -0.27700
C3622       C  0.50499321  0.64435606  0.10853037     0.18400
C3623       C  0.57407459  0.63163565  0.11712804     0.12300
C3624       C  0.57023398  0.68375129  0.13339435    -0.12000
H3625       H  0.52212547  0.69936052  0.13357205     0.12600
C3626       C  0.48305412  0.63020551  0.09883572    -0.22900
H3627       H  0.53064960  0.61460351  0.10006558     0.08300
C3628       C  0.57875298  0.61508817  0.13527850     0.04600
C3629       C  0.60256575  0.60431744  0.13766143    -0.20100
C3630       C  0.62198801  0.60983629  0.12243779    -0.12400
C3631       C  0.61679482  0.62535887  0.10347542     0.13300
C3632       C  0.59296661  0.63628213  0.10125584    -0.22800
C3633       C  0.55889783  0.60962323  0.15268341    -0.05900
H3634       H  0.60636716  0.59247818  0.15218225     0.14800
C3635       C  0.63556864  0.63046272  0.08501535    -0.16100
H3636       H  0.58915705  0.64873202  0.08715553     0.09200
H3637       H  0.48039883  0.61247189  0.10834114     0.07000
H3638       H  0.48679248  0.62571011  0.08078959     0.08200
H3639       H  0.46537937  0.64105738  0.09934686     0.07300
H3640       H  0.58419556  0.68631755  0.11969885     0.02100
H3641       H  0.57884991  0.67288227  0.14742315     0.02600
H3642       H  0.56513324  0.70253440  0.14001878     0.06100
H3643       H  0.56578507  0.59666875  0.16603012     0.05100
H3644       H  0.54247993  0.60079600  0.14438078    -0.00700
H3645       H  0.55294138  0.62729587  0.16099400     0.00800
H3646       H  0.62722539  0.62562003  0.06834150     0.04500
H3647       H  0.65286116  0.61920271  0.08665227     0.06400
H3648       H  0.64054522  0.65064057  0.08501146     0.07300
C3649       C  0.38318298  0.56760441  0.12892153    -0.22300
C3650       C  0.36779900  0.56522663  0.10983841     0.09600
C3651       C  0.36466962  0.58572651  0.09512538     0.10000
C3652       C  0.37612887  0.60862860  0.10046334    -0.17300
C3653       C  0.39056790  0.61159023  0.12029734    -0.27700
C3654       C  0.39474121  0.59037372  0.13436836     0.18400
C3655       C  0.35348458  0.54169177  0.10719831     0.12300
C3656       C  0.34911295  0.58345838  0.07393491    -0.12000
H3657       H  0.37314784  0.62451538  0.08936269     0.12600
C3658       C  0.41028810  0.59146677  0.15570841    -0.22900
H3659       H  0.38537202  0.55165821  0.14012438     0.08300
C3660       C  0.36548204  0.51885312  0.10222249     0.04600
C3661       C  0.35237694  0.49637309  0.10520469    -0.20100
C3662       C  0.32753507  0.49621850  0.11295963    -0.12400
C3663       C  0.31486714  0.51930067  0.11603969     0.13300
C3664       C  0.32812711  0.54172728  0.11318693    -0.22800
C3665       C  0.39226563  0.51820032  0.09434716    -0.05900
H3666       H  0.36197631  0.47871593  0.10257783     0.14800
C3667       C  0.28809927  0.52134451  0.12379671    -0.16100
H3668       H  0.31899761  0.55937507  0.11700238     0.09200
H3669       H  0.42983117  0.59670231  0.15150131     0.07000
H3670       H  0.41100815  0.57310049  0.16451803     0.08200
H3671       H  0.40213987  0.60522753  0.16771348     0.07300
H3672       H  0.32946807  0.57892608  0.07835712     0.02100
H3673       H  0.35681160  0.56836158  0.06304889     0.02600
H3674       H  0.34905751  0.60112880  0.06401588     0.06100
H3675       H  0.39855094  0.49880332  0.09064035     0.05100
H3676       H  0.40478670  0.52600344  0.10757643    -0.00700
H3677       H  0.39416076  0.52944729  0.07862679     0.00800
H3678       H  0.28742290  0.53126443  0.14031667     0.04500
H3679       H  0.27871736  0.50310380  0.12585203     0.06400
H3680       H  0.27720414  0.53228522  0.11118089     0.07300
C3681       C  0.41264057  0.68467971  0.97384193    -0.22300
C3682       C  0.41710775  0.70700277  0.98560232     0.09600
C3683       C  0.42219323  0.72918678  0.97353278     0.10000
C3684       C  0.42144349  0.72883327  0.94979484    -0.17300
C3685       C  0.41587873  0.70674963  0.93790278    -0.27700
C3686       C  0.41209329  0.68419888  0.95007384     0.18400
C3687       C  0.41601850  0.70682305  0.01060444     0.12300
C3688       C  0.42849984  0.75315350  0.98572996    -0.12000
H3689       H  0.42474588  0.74600283  0.94047664     0.12600
C3690       C  0.40832432  0.65948198  0.93818423    -0.22900
H3691       H  0.40933263  0.66763665  0.98334889     0.08300
C3692       C  0.39391159  0.71333929  0.02219644     0.04600
C3693       C  0.39392864  0.71362377  0.04594679    -0.20100
C3694       C  0.41540359  0.70702520  0.05833742    -0.12400
C3695       C  0.43712763  0.69900061  0.04657869     0.13300
C3696       C  0.43728192  0.69961369  0.02283277    -0.22800
C3697       C  0.37027622  0.71972424  0.00948254    -0.05900
H3698       H  0.37713758  0.71921972  0.05489674     0.14800
C3699       C  0.45999674  0.68843989  0.05821765    -0.16100
H3700       H  0.45395604  0.69391258  0.01374517     0.09200
H3701       H  0.39046951  0.65957367  0.92858983     0.07000
H3702       H  0.40752944  0.64364968  0.95036189     0.08200
H3703       H  0.42413328  0.65596704  0.92642293     0.07300
H3704       H  0.44552694  0.75035032  0.99623065     0.02100
H3705       H  0.41278957  0.75881397  0.99686497     0.02600
H3706       H  0.43216815  0.76871665  0.97371258     0.06100
H3707       H  0.35462318  0.72416532  0.02116223     0.05100
H3708       H  0.36457583  0.70356749  0.99883026    -0.00700
H3709       H  0.37339434  0.73622545  0.99843980     0.00800
H3710       H  0.46439312  0.66975377  0.05097930     0.04500
H3711       H  0.45756622  0.68558976  0.07663064     0.06400
H3712       H  0.47620230  0.70102939  0.05537312     0.07300
C3713       C  0.49866022  0.74991532  0.22012092    -0.22300
C3714       C  0.48961374  0.73879356  0.24002724     0.09600
C3715       C  0.46724471  0.72482789  0.23942024     0.10000
C3716       C  0.45563044  0.72043945  0.21858364    -0.17300
C3717       C  0.46609279  0.72925966  0.19831742    -0.27700
C3718       C  0.48723672  0.74511043  0.19909961     0.18400
C3719       C  0.50651915  0.73631530  0.25971492     0.12300
C3720       C  0.45668652  0.71288808  0.26048932    -0.12000
H3721       H  0.43911043  0.70867819  0.21793785     0.12600
C3722       C  0.49896636  0.75522400  0.17781191    -0.22900
H3723       H  0.51594198  0.76049482  0.22079692     0.08300
C3724       C  0.52511480  0.71762610  0.25949983     0.04600
C3725       C  0.53752144  0.71167435  0.27956174    -0.20100
C3726       C  0.53220919  0.72392274  0.30005527    -0.12400
C3727       C  0.51425181  0.74357859  0.30003468     0.13300
C3728       C  0.50159132  0.74946761  0.27976464    -0.22800
C3729       C  0.53100954  0.70290288  0.23833045    -0.05900
H3730       H  0.55082522  0.69646115  0.27929877     0.14800
C3731       C  0.50726246  0.75752015  0.32129008    -0.16100
H3732       H  0.48699513  0.76358214  0.27973508     0.09200
H3733       H  0.50456656  0.73951235  0.16658354     0.07000
H3734       H  0.51590409  0.76653888  0.18155240     0.08200
H3735       H  0.48540105  0.76743257  0.16880093     0.07300
H3736       H  0.45215247  0.72759388  0.27311401     0.02100
H3737       H  0.47053777  0.69969809  0.26789102     0.02600
H3738       H  0.43928590  0.70224241  0.25686313     0.06100
H3739       H  0.54567207  0.68852936  0.24136139     0.05100
H3740       H  0.53794852  0.71569715  0.22493864    -0.00700
H3741       H  0.51395905  0.69315311  0.23219415     0.00800
H3742       H  0.49234292  0.77158426  0.31809807     0.04500
H3743       H  0.52380082  0.76767574  0.32799172     0.06400
H3744       H  0.50018188  0.74419682  0.33420913     0.07300
C3745       C  0.33628099  0.65448997  0.22123049    -0.22300
C3746       C  0.34344098  0.66871056  0.24013909     0.09600
C3747       C  0.36025350  0.68885810  0.23740137     0.10000
C3748       C  0.37113037  0.69300376  0.21613318    -0.17300
C3749       C  0.36525873  0.67765189  0.19760895    -0.27700
C3750       C  0.34700739  0.65876887  0.19990686     0.18400
C3751       C  0.33726251  0.65891755  0.26289400     0.12300
C3752       C  0.36716396  0.70552271  0.25702990    -0.12000
H3753       H  0.38503851  0.70760578  0.21414391     0.12600
C3754       C  0.34019125  0.64202263  0.18030544    -0.22900
H3755       H  0.32356123  0.63889898  0.22350811     0.08300
C3756       C  0.31288712  0.65971609  0.27202902     0.04600
C3757       C  0.30800209  0.64726151  0.29256530    -0.20100
C3758       C  0.32699772  0.63400407  0.30385516    -0.12400
C3759       C  0.35168693  0.63451741  0.29526463     0.13300
C3760       C  0.35635792  0.64662509  0.27475165    -0.22800
C3761       C  0.29215343  0.67347274  0.26004139    -0.05900
H3762       H  0.28917258  0.64702544  0.29933168     0.14800
C3763       C  0.37367280  0.62271892  0.30731873    -0.16100
H3764       H  0.37509760  0.64616858  0.26772762     0.09200
H3765       H  0.32601678  0.62782889  0.18518616     0.07000
H3766       H  0.33228915  0.65343961  0.16630091     0.08200
H3767       H  0.35708296  0.63199210  0.17416759     0.07300
H3768       H  0.37658772  0.69450826  0.27049808     0.02100
H3769       H  0.34999076  0.71425811  0.26405761     0.02600
H3770       H  0.38007963  0.72072793  0.25177739     0.06100
H3771       H  0.27435419  0.67260198  0.26969243     0.05100
H3772       H  0.28886156  0.66508590  0.24310367    -0.00700
H3773       H  0.29738411  0.69345699  0.25797675     0.00800
H3774       H  0.38144791  0.60736106  0.29678292     0.04500
H3775       H  0.36891532  0.61511189  0.32421928     0.06400
H3776       H  0.38843310  0.63704853  0.30997933     0.07300
loop_ 
_geom_bond_atom_site_label_1 
_geom_bond_atom_site_label_2 
_geom_bond_distance 
_geom_bond_site_symmetry_2 
_ccdc_geom_bond_type 
Fe1          O17   2.075       .  S
Fe1           O7   2.046       .  S
Fe1          O14   2.056       .  S
Fe1           O6   2.069       .  S
Fe1          O12   1.975       .  S
Fe2           O5   2.053       .  S
Fe2           O9   2.052       .  S
Fe2          O13   2.061       .  S
Fe2          O18   2.053       .  S
Fe2          O12   1.962       .  S
Fe3          O21   2.063       .  S
Fe3           O8   2.087       .  S
Fe3          O15   2.078       .  S
Fe3           O4   2.061       .  S
Fe3          O12   1.983       .  S
O4           C11   1.270       .  A
O5           C19   1.267       .  A
O6           C11   1.272       .  A
O7           C10   1.264       .  A
O8           C20   1.273       .  A
O9           C22   1.268       .  A
C10          O15   1.269       .  A
C10        C3598   1.480       .  S
C11        C3694   1.478       .  S
O13          C16   1.265       .  A
O14          C16   1.265       .  A
C16        C3653   1.491       .  S
O17          C22   1.271       .  A
O18          C20   1.267       .  A
C19          O21   1.266       .  A
C19        C3717   1.474       .  S
C20        C3621   1.479       .  S
C22        C3749   1.469       .  S
Fe23         O39   2.063       .  S
Fe23         O29   2.057       .  S
Fe23         O36   2.065       .  S
Fe23         O28   2.052       .  S
Fe23         O34   1.971       .  S
Fe24         O27   2.058       .  S
Fe24         O31   2.061       .  S
Fe24         O35   2.066       .  S
Fe24         O40   2.056       .  S
Fe24         O34   1.960       .  S
Fe25         O43   2.077       .  S
Fe25         O30   2.078       .  S
Fe25         O37   2.083       .  S
Fe25         O26   2.074       .  S
Fe25         O34   1.976       .  S
O26          C33   1.266       .  A
O27          C41   1.266       .  A
O28          C33   1.263       .  A
O29          C32   1.272       .  A
O30          C42   1.272       .  A
O31          C44   1.264       .  A
C32          O37   1.277       .  A
C32        C3685   1.478       .  S
C33        C3429   1.479       .  S
O35          C38   1.272       .  A
O36          C38   1.271       .  A
C38        C3502   1.470       .  S
O39          C44   1.264       .  A
O40          C42   1.269       .  A
C41          O43   1.270       .  A
C41        C3525   1.478       .  S
C42        C3461   1.482       .  S
C44        C3557   1.474       .  S
Fe45         O61   2.072       .  S
Fe45         O51   2.055       .  S
Fe45         O58   2.073       .  S
Fe45         O50   2.064       .  S
Fe45         O56   1.969       .  S
Fe46         O49   2.049       .  S
Fe46         O53   2.054       .  S
Fe46         O57   2.062       .  S
Fe46         O62   2.053       .  S
Fe46         O56   1.963       .  S
Fe47         O65   2.086       .  S
Fe47         O52   2.076       .  S
Fe47         O59   2.076       .  S
Fe47         O48   2.076       .  S
Fe47         O56   1.978       .  S
O48          C55   1.274       .  A
O49          C63   1.268       .  A
O50          C55   1.272       .  A
O51          C54   1.265       .  A
O52          C64   1.269       .  A
O53          C66   1.269       .  A
C54          O59   1.268       .  A
C54        C3269   1.484       .  S
C55        C3342   1.476       .  S
O57          C60   1.267       .  A
O58          C60   1.268       .  A
C60        C3630   1.486       .  S
O61          C66   1.270       .  A
O62          C64   1.267       .  A
C63          O65   1.272       .  A
C63        C3397   1.486       .  S
C64        C3310   1.481       .  S
C66        C3365   1.485       .  S
Fe67         O83   2.072       .  S
Fe67         O73   2.067       .  S
Fe67         O80   2.069       .  S
Fe67         O72   2.050       .  S
Fe67         O78   1.981       .  S
Fe68         O71   2.049       .  S
Fe68         O75   2.060       .  S
Fe68         O79   2.050       .  S
Fe68         O84   2.056       .  S
Fe68         O78   1.969       .  S
Fe69         O87   2.079       .  S
Fe69         O74   2.073       .  S
Fe69         O81   2.069       .  S
Fe69         O70   2.076       .  S
Fe69         O78   1.988       .  S
O70          C77   1.269       .  A
O71          C85   1.265       .  A
O72          C77   1.265       .  A
O73          C76   1.271       .  A
O74          C86   1.269       .  A
O75          C88   1.266       .  A
C76          O81   1.270       .  A
C76        C3333   1.480       .  S
C77        C3141   1.479       .  S
O79          C82   1.266       .  A
O80          C82   1.269       .  A
C82        C3173   1.465       .  S
O83          C88   1.269       .  A
O84          C86   1.267       .  A
C85          O87   1.272       .  A
C85        C3237   1.484       .  S
C86        C3205   1.480       .  S
C88        C3534   1.496       .  S
Fe89        O105   2.069       .  S
Fe89         O95   2.056       .  S
Fe89        O102   2.071       .  S
Fe89         O94   2.057       .  S
Fe89        O100   1.966       .  S
Fe90         O93   2.043       .  S
Fe90         O97   2.074       .  S
Fe90        O101   2.049       .  S
Fe90        O106   2.056       .  S
Fe90        O100   1.955       .  S
Fe91        O109   2.084       .  S
Fe91         O96   2.080       .  S
Fe91        O103   2.079       .  S
Fe91         O92   2.084       .  S
Fe91        O100   1.972       .  S
O92          C99   1.276       .  A
O93         C107   1.268       .  A
O94          C99   1.273       .  A
O95          C98   1.265       .  A
O96         C108   1.271       .  A
O97         C110   1.272       .  A
C98         O103   1.268       .  A
C98        C2981   1.487       .  S
C99        C3045   1.475       .  S
O101        C104   1.262       .  A
O102        C104   1.266       .  A
C104       C3301   1.474       .  S
O105        C110   1.272       .  A
O106        C108   1.266       .  A
C107        O109   1.272       .  A
C107       C3118   1.494       .  S
C108       C3013   1.478       .  S
C110       C3077   1.472       .  S
Fe111       O127   2.060       .  S
Fe111       O117   2.074       .  S
Fe111       O124   2.087       .  S
Fe111       O116   2.042       .  S
Fe111       O122   1.963       .  S
Fe112       O115   2.050       .  S
Fe112       O119   2.060       .  S
Fe112       O123   2.046       .  S
Fe112       O128   2.059       .  S
Fe112       O122   1.957       .  S
Fe113       O131   2.092       .  S
Fe113       O118   2.070       .  S
Fe113       O125   2.060       .  S
Fe113       O114   2.084       .  S
Fe113       O122   1.966       .  S
O114        C121   1.269       .  A
O115        C129   1.268       .  A
O116        C121   1.263       .  A
O117        C120   1.273       .  A
O118        C130   1.266       .  A
O119        C132   1.263       .  A
C120        O125   1.272       .  A
C120       C3054   1.482       .  S
C121       C2853   1.476       .  S
O123        C126   1.270       .  A
O124        C126   1.278       .  A
C126       C2885   1.488       .  S
O127        C132   1.262       .  A
O128        C130   1.265       .  A
C129        O131   1.277       .  A
C129       C2958   1.492       .  S
C130       C2917   1.470       .  S
C132       C3246   1.474       .  S
Fe133       O149   2.059       .  S
Fe133       O139   2.061       .  S
Fe133       O146   2.077       .  S
Fe133       O138   2.054       .  S
Fe133       O144   1.967       .  S
Fe134       O137   2.048       .  S
Fe134       O141   2.064       .  S
Fe134       O145   2.059       .  S
Fe134       O150   2.054       .  S
Fe134       O144   1.956       .  S
Fe135       O153   2.084       .  S
Fe135       O140   2.073       .  S
Fe135       O147   2.071       .  S
Fe135       O136   2.074       .  S
Fe135       O144   1.972       .  S
O136        C143   1.273       .  A
O137        C151   1.268       .  A
O138        C143   1.273       .  A
O139        C142   1.266       .  A
O140        C152   1.269       .  A
O141        C154   1.272       .  A
C142        O147   1.267       .  A
C142       C2725   1.483       .  S
C143       C2766   1.489       .  S
O145        C148   1.264       .  A
O146        C148   1.268       .  A
C148       C3022   1.483       .  S
O149        C154   1.270       .  A
O150        C152   1.267       .  A
C151        O153   1.272       .  A
C151       C2798   1.487       .  S
C152       C3662   1.477       .  S
C154       C2821   1.477       .  S
Fe155       O171   2.065       .  S
Fe155       O161   2.068       .  S
Fe155       O168   2.088       .  S
Fe155       O160   2.046       .  S
Fe155       O166   1.958       .  S
Fe156       O159   2.044       .  S
Fe156       O163   2.060       .  S
Fe156       O167   2.043       .  S
Fe156       O172   2.061       .  S
Fe156       O166   1.946       .  S
Fe157       O175   2.099       .  S
Fe157       O162   2.070       .  S
Fe157       O169   2.057       .  S
Fe157       O158   2.088       .  S
Fe157       O166   1.962       .  S
O158        C165   1.271       .  A
O159        C173   1.269       .  A
O160        C165   1.266       .  A
O161        C164   1.272       .  A
O162        C174   1.267       .  A
O163        C176   1.264       .  A
C164        O169   1.271       .  A
C164       C2757   1.464       .  S
C165       C2629   1.476       .  S
O167        C170   1.271       .  A
O168        C170   1.276       .  A
C170       C2702   1.469       .  S
O171        C176   1.264       .  A
O172        C174   1.267       .  A
C173        O175   1.276       .  A
C173       C3566   1.484       .  S
C174       C2670   1.481       .  S
C176       C2949   1.476       .  S
Fe177       O193   2.074       .  S
Fe177       O183   2.060       .  S
Fe177       O190   2.074       .  S
Fe177       O182   2.064       .  S
Fe177       O188   1.969       .  S
Fe178       O181   2.048       .  S
Fe178       O185   2.067       .  S
Fe178       O189   2.056       .  S
Fe178       O194   2.061       .  S
Fe178       O188   1.959       .  S
Fe179       O197   2.082       .  S
Fe179       O184   2.070       .  S
Fe179       O191   2.066       .  S
Fe179       O180   2.079       .  S
Fe179       O188   1.974       .  S
O180        C187   1.275       .  A
O181        C195   1.268       .  A
O182        C187   1.272       .  A
O183        C186   1.266       .  A
O184        C196   1.268       .  A
O185        C198   1.271       .  A
C186        O191   1.266       .  A
C186       C2501   1.478       .  S
C187       C2597   1.488       .  S
O189        C192   1.266       .  A
O190        C192   1.268       .  A
C192       C2565   1.481       .  S
O193        C198   1.272       .  A
O194        C196   1.269       .  A
C195        O197   1.271       .  A
C195       C3406   1.497       .  S
C196       C2533   1.480       .  S
C198       C3086   1.476       .  S
Fe199       O215   2.065       .  S
Fe199       O205   2.060       .  S
Fe199       O212   2.067       .  S
Fe199       O204   2.049       .  S
Fe199       O210   1.971       .  S
Fe200       O203   2.049       .  S
Fe200       O207   2.054       .  S
Fe200       O211   2.064       .  S
Fe200       O216   2.044       .  S
Fe200       O210   1.960       .  S
Fe201       O219   2.071       .  S
Fe201       O206   2.092       .  S
Fe201       O213   2.089       .  S
Fe201       O202   2.076       .  S
Fe201       O210   1.976       .  S
O202        C209   1.266       .  A
O203        C217   1.265       .  A
O204        C209   1.262       .  A
O205        C208   1.275       .  A
O206        C218   1.274       .  A
O207        C220   1.261       .  A
C208        O213   1.279       .  A
C208       C2606   1.478       .  S
C209       C2405   1.480       .  S
O211        C214   1.272       .  A
O212        C214   1.273       .  A
C214       C2894   1.479       .  S
O215        C220   1.264       .  A
O216        C218   1.268       .  A
C217        O219   1.269       .  A
C217       C2446   1.471       .  S
C218       C3214   1.500       .  S
C220       C2478   1.479       .  S
Fe221       O237   2.067       .  S
Fe221       O227   2.057       .  S
Fe221       O234   2.065       .  S
Fe221       O226   2.060       .  S
Fe221       O232   1.976       .  S
Fe222       O225   2.052       .  S
Fe222       O229   2.068       .  S
Fe222       O233   2.062       .  S
Fe222       O238   2.063       .  S
Fe222       O232   1.963       .  S
Fe223       O241   2.069       .  S
Fe223       O228   2.079       .  S
Fe223       O235   2.072       .  S
Fe223       O224   2.065       .  S
Fe223       O232   1.979       .  S
O224        C231   1.271       .  A
O225        C239   1.269       .  A
O226        C231   1.273       .  A
O227        C230   1.265       .  A
O228        C240   1.270       .  A
O229        C242   1.272       .  A
C230        O235   1.266       .  A
C230       C2309   1.486       .  S
C231       C2373   1.480       .  S
O233        C236   1.265       .  A
O234        C236   1.265       .  A
C236       C2542   1.480       .  S
O237        C242   1.272       .  A
O238        C240   1.268       .  A
C239        O241   1.268       .  A
C239       C3726   1.490       .  S
C240       C2341   1.475       .  S
C242       C3374   1.481       .  S
Fe243       O259   2.065       .  S
Fe243       O249   2.051       .  S
Fe243       O256   2.068       .  S
Fe243       O248   2.054       .  S
Fe243       O254   1.963       .  S
Fe244       O247   2.061       .  S
Fe244       O251   2.053       .  S
Fe244       O255   2.067       .  S
Fe244       O260   2.055       .  S
Fe244       O254   1.954       .  S
Fe245       O263   2.073       .  S
Fe245       O250   2.080       .  S
Fe245       O257   2.079       .  S
Fe245       O246   2.076       .  S
Fe245       O254   1.971       .  S
O246        C253   1.268       .  A
O247        C261   1.269       .  A
O248        C253   1.266       .  A
O249        C252   1.270       .  A
O250        C262   1.271       .  A
O251        C264   1.265       .  A
C252        O257   1.273       .  A
C252       C2382   1.465       .  S
C253       C2245   1.477       .  S
O255        C258   1.272       .  A
O256        C258   1.271       .  A
C258       C3182   1.467       .  S
O259        C264   1.264       .  A
O260        C262   1.270       .  A
C261        O263   1.270       .  A
C261       C2286   1.486       .  S
C262       C3470   1.496       .  S
C264       C2437   1.480       .  S
Fe265       O281   2.077       .  S
Fe265       O271   2.058       .  S
Fe265       O278   2.070       .  S
Fe265       O270   2.068       .  S
Fe265       O276   1.973       .  S
Fe266       O269   2.069       .  S
Fe266       O273   2.050       .  S
Fe266       O277   2.066       .  S
Fe266       O282   2.051       .  S
Fe266       O276   1.965       .  S
Fe267       O285   2.067       .  S
Fe267       O272   2.083       .  S
Fe267       O279   2.073       .  S
Fe267       O268   2.060       .  S
Fe267       O276   1.980       .  S
O268        C275   1.272       .  A
O269        C283   1.272       .  A
O270        C275   1.272       .  A
O271        C274   1.266       .  A
O272        C284   1.271       .  A
O273        C286   1.268       .  A
C274        O279   1.267       .  A
C274       C2149   1.482       .  S
C275       C2213   1.477       .  S
O277        C280   1.267       .  A
O278        C280   1.269       .  A
C280       C2350   1.496       .  S
O281        C286   1.271       .  A
O282        C284   1.265       .  A
C283        O285   1.269       .  A
C283       C2789   1.484       .  S
C284       C2181   1.480       .  S
C286       C3758   1.471       .  S
Fe287       O303   2.072       .  S
Fe287       O293   2.062       .  S
Fe287       O300   2.068       .  S
Fe287       O292   2.055       .  S
Fe287       O298   1.968       .  S
Fe288       O291   2.056       .  S
Fe288       O295   2.060       .  S
Fe288       O299   2.062       .  S
Fe288       O304   2.057       .  S
Fe288       O298   1.961       .  S
Fe289       O307   2.070       .  S
Fe289       O294   2.070       .  S
Fe289       O301   2.070       .  S
Fe289       O290   2.069       .  S
Fe289       O298   1.971       .  S
O290        C297   1.267       .  A
O291        C305   1.268       .  A
O292        C297   1.265       .  A
O293        C296   1.273       .  A
O294        C306   1.271       .  A
O295        C308   1.265       .  A
C296        O301   1.272       .  A
C296       C2222   1.483       .  S
C297       C2085   1.476       .  S
O299        C302   1.270       .  A
O300        C302   1.270       .  A
C302       C3493   1.466       .  S
O303        C308   1.268       .  A
O304        C306   1.267       .  A
C305        O307   1.269       .  A
C305       C2117   1.479       .  S
C306       C2661   1.489       .  S
C308       C2277   1.487       .  S
Fe309       O325   2.070       .  S
Fe309       O315   2.051       .  S
Fe309       O322   2.064       .  S
Fe309       O314   2.056       .  S
Fe309       O320   1.979       .  S
Fe310       O313   2.051       .  S
Fe310       O317   2.056       .  S
Fe310       O321   2.060       .  S
Fe310       O326   2.054       .  S
Fe310       O320   1.965       .  S
Fe311       O329   2.068       .  S
Fe311       O316   2.085       .  S
Fe311       O323   2.082       .  S
Fe311       O312   2.063       .  S
Fe311       O320   1.982       .  S
O312        C319   1.270       .  A
O313        C327   1.265       .  A
O314        C319   1.269       .  A
O315        C318   1.266       .  A
O316        C328   1.274       .  A
O317        C330   1.271       .  A
C318        O323   1.269       .  A
C318       C2021   1.486       .  S
C319       C2053   1.472       .  S
O321        C324   1.263       .  A
O322        C324   1.266       .  A
C324       C2190   1.498       .  S
O325        C330   1.271       .  A
O326        C328   1.269       .  A
C327        O329   1.267       .  A
C327       C3109   1.476       .  S
C328       C2574   1.479       .  S
C330       C2830   1.465       .  S
Fe331       O347   2.056       .  S
Fe331       O337   2.075       .  S
Fe331       O344   2.083       .  S
Fe331       O336   2.046       .  S
Fe331       O342   1.964       .  S
Fe332       O335   2.052       .  S
Fe332       O339   2.069       .  S
Fe332       O343   2.043       .  S
Fe332       O348   2.074       .  S
Fe332       O342   1.955       .  S
Fe333       O351   2.094       .  S
Fe333       O338   2.062       .  S
Fe333       O345   2.054       .  S
Fe333       O334   2.085       .  S
Fe333       O342   1.966       .  S
O334        C341   1.270       .  A
O335        C349   1.267       .  A
O336        C341   1.264       .  A
O337        C340   1.274       .  A
O338        C350   1.267       .  A
O339        C352   1.267       .  A
C340        O345   1.271       .  A
C340       C2062   1.476       .  S
C341       C1998   1.485       .  S
O343        C346   1.269       .  A
O344        C346   1.275       .  A
C346       C2693   1.477       .  S
O347        C352   1.264       .  A
O348        C350   1.269       .  A
C349        O351   1.276       .  A
C349       C2469   1.486       .  S
C350       C2926   1.480       .  S
C352       C2126   1.481       .  S
Fe353       O369   2.058       .  S
Fe353       O359   2.054       .  S
Fe353       O366   2.066       .  S
Fe353       O358   2.049       .  S
Fe353       O364   1.964       .  S
Fe354       O357   2.047       .  S
Fe354       O361   2.070       .  S
Fe354       O365   2.051       .  S
Fe354       O370   2.054       .  S
Fe354       O364   1.958       .  S
Fe355       O373   2.084       .  S
Fe355       O360   2.077       .  S
Fe355       O367   2.076       .  S
Fe355       O356   2.086       .  S
Fe355       O364   1.970       .  S
O356        C363   1.277       .  A
O357        C371   1.269       .  A
O358        C363   1.270       .  A
O359        C362   1.265       .  A
O360        C372   1.270       .  A
O361        C374   1.271       .  A
C362        O367   1.268       .  A
C362       C2414   1.483       .  S
C363       C1893   1.478       .  S
O365        C368   1.263       .  A
O366        C368   1.267       .  A
C368       C1861   1.479       .  S
O369        C374   1.269       .  A
O370        C372   1.267       .  A
C371        O373   1.273       .  A
C371       C1934   1.490       .  S
C372       C1829   1.480   1_655  S
C374       C1957   1.466       .  S
Fe375       O391   2.060       .  S
Fe375       O381   2.062       .  S
Fe375       O388   2.072       .  S
Fe375       O380   2.046       .  S
Fe375       O386   1.971       .  S
Fe376       O379   2.061       .  S
Fe376       O383   2.071       .  S
Fe376       O387   2.050       .  S
Fe376       O392   2.073       .  S
Fe376       O386   1.966       .  S
Fe377       O395   2.081       .  S
Fe377       O382   2.061       .  S
Fe377       O389   2.062       .  S
Fe377       O378   2.078       .  S
Fe377       O386   1.979       .  S
O378        C385   1.269       .  A
O379        C393   1.268       .  A
O380        C385   1.265       .  A
O381        C384   1.269       .  A
O382        C394   1.268       .  A
O383        C396   1.269       .  A
C384        O389   1.271       .  A
C384       C1902   1.480       .  S
C385       C2510   1.480       .  S
O387        C390   1.268       .  A
O388        C390   1.269       .  A
C390       C1710   1.465       .  S
O391        C396   1.266       .  A
O392        C394   1.271       .  A
C393        O395   1.272       .  A
C393       C1765   1.487       .  S
C394       C1733   1.481       .  S
C396       C1797   1.482       .  S
Fe397       O413   2.059       .  S
Fe397       O403   2.060       .  S
Fe397       O410   2.075       .  S
Fe397       O402   2.059       .  S
Fe397       O408   1.973       .  S
Fe398       O401   2.059       .  S
Fe398       O405   2.068       .  S
Fe398       O409   2.058       .  S
Fe398       O414   2.066       .  S
Fe398       O408   1.963       .  S
Fe399       O417   2.076       .  S
Fe399       O404   2.078       .  S
Fe399       O411   2.073       .  S
Fe399       O400   2.073       .  S
Fe399       O408   1.975       .  S
O400        C407   1.273       .  A
O401        C415   1.270       .  A
O402        C407   1.273       .  A
O403        C406   1.266       .  A
O404        C416   1.271       .  A
O405        C418   1.271       .  A
C406        O411   1.267       .  A
C406       C2094   1.484       .  S
C407       C1614   1.477       .  S
O409        C412   1.265       .  A
O410        C412   1.269       .  A
C412       C1573   1.493       .  S
O413        C418   1.268       .  A
O414        C416   1.268       .  A
C415        O417   1.270       .  A
C415       C1637   1.494       .  S
C416       C1541   1.484       .  S
C418       C1669   1.467       .  S
Fe419       O435   2.058       .  S
Fe419       O425   2.053       .  S
Fe419       O432   2.063       .  S
Fe419       O424   2.043       .  S
Fe419       O430   1.968       .  S
Fe420       O423   2.058       .  S
Fe420       O427   2.064       .  S
Fe420       O431   2.056       .  S
Fe420       O436   2.057       .  S
Fe420       O430   1.961       .  S
Fe421       O439   2.084       .  S
Fe421       O426   2.074       .  S
Fe421       O433   2.068       .  S
Fe421       O422   2.081       .  S
Fe421       O430   1.977       .  S
O422        C429   1.269       .  A
O423        C437   1.270       .  A
O424        C429   1.264       .  A
O425        C428   1.269       .  A
O426        C438   1.268       .  A
O427        C440   1.265       .  A
C428        O433   1.272       .  A
C428       C1605   1.473       .  S
C429       C2158   1.478       .  S
O431        C434   1.272       .  A
O432        C434   1.270       .  A
C434       C1445   1.473       .  S
O435        C440   1.264       .  A
O436        C438   1.265       .  A
C437        O439   1.275       .  A
C437       C1486   1.488       .  S
C438       C1413   1.471       .  S
C440       C1509   1.488       .  S
Fe441       O457   2.055       .  S
Fe441       O447   2.067       .  S
Fe441       O454   2.086       .  S
Fe441       O446   2.052       .  S
Fe441       O452   1.963       .  S
Fe442       O445   2.055       .  S
Fe442       O449   2.069       .  S
Fe442       O453   2.062       .  S
Fe442       O458   2.055       .  S
Fe442       O452   1.954       .  S
Fe443       O461   2.086       .  S
Fe443       O448   2.065       .  S
Fe443       O455   2.063       .  S
Fe443       O444   2.086       .  S
Fe443       O452   1.969       .  S
O444        C451   1.277       .  A
O445        C459   1.269       .  A
O446        C451   1.273       .  A
O447        C450   1.267       .  A
O448        C460   1.267       .  A
O449        C462   1.272       .  A
C450        O455   1.265       .  A
C450       C2254   1.481       .  S
C451       C1317   1.481       .  S
O453        C456   1.265       .  A
O454        C456   1.270       .  A
C456       C1550   1.493       .  S
O457        C462   1.269       .  A
O458        C460   1.267       .  A
C459        O461   1.274       .  A
C459       C1381   1.483       .  S
C460       C1870   1.469       .  S
C462       C1349   1.462       .  S
Fe463       O479   2.062       .  S
Fe463       O469   2.059       .  S
Fe463       O476   2.072       .  S
Fe463       O468   2.051       .  S
Fe463       O474   1.981       .  S
Fe464       O467   2.049       .  S
Fe464       O471   2.059       .  S
Fe464       O475   2.052       .  S
Fe464       O480   2.053       .  S
Fe464       O474   1.966       .  S
Fe465       O483   2.085       .  S
Fe465       O470   2.079       .  S
Fe465       O477   2.074       .  S
Fe465       O466   2.076       .  S
Fe465       O474   1.985       .  S
O466        C473   1.267       .  A
O467        C481   1.266       .  A
O468        C473   1.264       .  A
O469        C472   1.271       .  A
O470        C482   1.269       .  A
O471        C484   1.265       .  A
C472        O477   1.274       .  A
C472       C1326   1.476       .  S
C473       C2318   1.474       .  S
O475        C478   1.270       .  A
O476        C478   1.272       .  A
C478       C1253   1.472       .  S
O479        C484   1.264       .  A
O480        C482   1.267       .  A
C481        O483   1.272       .  A
C481       C1806   1.483       .  S
C482       C1294   1.488       .  S
C484       C1477   1.480       .  S
Fe485       O501   2.066       .  S
Fe485       O491   2.054       .  S
Fe485       O498   2.066       .  S
Fe485       O490   2.050       .  S
Fe485       O496   1.975       .  S
Fe486       O489   2.052       .  S
Fe486       O493   2.057       .  S
Fe486       O497   2.056       .  S
Fe486       O502   2.055       .  S
Fe486       O496   1.969       .  S
Fe487       O505   2.088       .  S
Fe487       O492   2.074       .  S
Fe487       O499   2.079       .  S
Fe487       O488   2.088       .  S
Fe487       O496   1.985       .  S
O488        C495   1.277       .  A
O489        C503   1.268       .  A
O490        C495   1.269       .  A
O491        C494   1.264       .  A
O492        C504   1.269       .  A
O493        C506   1.270       .  A
C494        O499   1.267       .  A
C494       C1989   1.482       .  S
C495       C1157   1.491       .  S
O497        C500   1.264       .  A
O498        C500   1.265       .  A
C500       C1838   1.478       .  S
O501        C506   1.270       .  A
O502        C504   1.266       .  A
C503        O505   1.274       .  A
C503       C1189   1.482       .  S
C504       C1582   1.474       .  S
C506       C1221   1.465       .  S
Fe507       O523   2.065       .  S
Fe507       O513   2.088       .  S
Fe507       O520   2.107       .  S
Fe507       O512   2.054       .  S
Fe507       O518   1.963       .  S
Fe508       O511   2.039       .  S
Fe508       O515   2.065       .  S
Fe508       O519   2.032       .  S
Fe508       O524   2.066       .  S
Fe508       O518   1.948       .  S
Fe509       O527   2.101       .  S
Fe509       O514   2.069       .  S
Fe509       O521   2.056       .  S
Fe509       O510   2.080       .  S
Fe509       O518   1.967       .  S
O510        C517   1.269       .  A
O511        C525   1.265       .  A
O512        C517   1.266       .  A
O513        C516   1.277       .  A
O514        C526   1.267       .  A
O515        C528   1.265       .  A
C516        O521   1.272       .  A
C516       C1166   1.473       .  S
C517       C2030   1.477       .  S
O519        C522   1.266       .  A
O520        C522   1.281       .  A
C522       C1134   1.491       .  S
O523        C528   1.265       .  A
O524        C526   1.268       .  A
C525        O527   1.277       .  A
C525       C1518   1.484   1_545  S
C526       C1093   1.481       .  S
C528       C1774   1.494       .  S
Fe529       O545   2.061       .  S
Fe529       O535   2.050       .  S
Fe529       O542   2.063       .  S
Fe529       O534   2.046       .  S
Fe529       O540   1.973       .  S
Fe530       O533   2.056       .  S
Fe530       O537   2.065       .  S
Fe530       O541   2.060       .  S
Fe530       O546   2.059       .  S
Fe530       O540   1.966       .  S
Fe531       O549   2.091       .  S
Fe531       O536   2.075       .  S
Fe531       O543   2.077       .  S
Fe531       O532   2.083       .  S
Fe531       O540   1.979       .  S
O532        C539   1.268       .  A
O533        C547   1.267       .  A
O534        C539   1.262       .  A
O535        C538   1.272       .  A
O536        C548   1.272       .  A
O537        C550   1.267       .  A
C538        O543   1.275       .  A
C538       C1061   1.471       .  S
C539       C2990   1.478       .  S
O541        C544   1.270       .  A
O542        C544   1.269       .  A
C544       C1701   1.464       .  S
O545        C550   1.264       .  A
O546        C548   1.267       .  A
C547        O549   1.273       .  A
C547       C1006   1.490   1_545  S
C548       C1285   1.495       .  S
C550       C1029   1.494       .  S
Fe551       O567   2.066       .  S
Fe551       O557   2.049       .  S
Fe551       O564   2.061       .  S
Fe551       O556   2.059       .  S
Fe551       O562   1.977       .  S
Fe552       O555   2.063       .  S
Fe552       O559   2.057       .  S
Fe552       O563   2.057       .  S
Fe552       O568   2.060       .  S
Fe552       O562   1.969       .  S
Fe553       O571   2.069       .  S
Fe553       O558   2.079       .  S
Fe553       O565   2.075       .  S
Fe553       O554   2.062       .  S
Fe553       O562   1.985       .  S
O554        C561   1.271       .  A
O555        C569   1.268       .  A
O556        C561   1.271       .  A
O557        C560   1.264       .  A
O558        C570   1.271       .  A
O559        C572   1.270       .  A
C560        O565   1.267       .  A
C560       C2862   1.481       .  S
C561       C1070   1.469       .  S
O563        C566   1.264       .  A
O564        C566   1.266       .  A
C566        C965   1.484       .  S
O567        C572   1.269       .  A
O568        C570   1.268       .  A
C569        O571   1.270       .  A
C569       C1390   1.489       .  S
C570        C933   1.484   1_545  S
C572       C1966   1.463       .  S
Fe573       O589   2.067       .  S
Fe573       O579   2.066       .  S
Fe573       O586   2.084       .  S
Fe573       O578   2.057       .  S
Fe573       O584   1.966       .  S
Fe574       O577   2.051       .  S
Fe574       O581   2.074       .  S
Fe574       O585   2.047       .  S
Fe574       O590   2.073       .  S
Fe574       O584   1.960       .  S
Fe575       O593   2.092       .  S
Fe575       O580   2.061       .  S
Fe575       O587   2.052       .  S
Fe575       O576   2.079       .  S
Fe575       O584   1.972       .  S
O576        C583   1.269       .  A
O577        C591   1.267       .  A
O578        C583   1.266       .  A
O579        C582   1.272       .  A
O580        C592   1.266       .  A
O581        C594   1.268       .  A
C582        O587   1.270       .  A
C582        C901   1.465       .  S
C583       C3278   1.475       .  S
O585        C588   1.271       .  A
O586        C588   1.274       .  A
C588       C1262   1.493       .  S
O589        C594   1.266       .  A
O590        C592   1.270       .  A
C591        O593   1.275       .  A
C591        C869   1.490       .  S
C592       C1422   1.476       .  S
C594        C997   1.488       .  S
Fe595       O611   2.061       .  S
Fe595       O601   2.055       .  S
Fe595       O608   2.077       .  S
Fe595       O600   2.054       .  S
Fe595       O606   1.979       .  S
Fe596       O599   2.048       .  S
Fe596       O603   2.055       .  S
Fe596       O607   2.050       .  S
Fe596       O612   2.050       .  S
Fe596       O606   1.966       .  S
Fe597       O615   2.077       .  S
Fe597       O602   2.079       .  S
Fe597       O609   2.074       .  S
Fe597       O598   2.067       .  S
Fe597       O606   1.986       .  S
O598        C605   1.272       .  A
O599        C613   1.267       .  A
O600        C605   1.270       .  A
O601        C604   1.266       .  A
O602        C614   1.271       .  A
O603        C616   1.269       .  A
C604        O609   1.268       .  A
C604       C3150   1.480       .  S
C605        C910   1.470       .  S
O607        C610   1.265       .  A
O608        C610   1.268       .  A
C610        C942   1.483       .  S
O611        C616   1.268       .  A
O612        C614   1.266       .  A
C613        O615   1.269       .  A
C613       C1646   1.485       .  S
C614        C846   1.477   1_655  S
C616       C1358   1.464       .  S
Fe617       O633   2.065       .  S
Fe617       O623   2.069       .  S
Fe617       O630   2.076       .  S
Fe617       O622   2.045       .  S
Fe617       O628   1.971       .  S
Fe618       O621   2.047       .  S
Fe618       O625   2.061       .  S
Fe618       O629   2.038       .  S
Fe618       O634   2.062       .  S
Fe618       O628   1.958       .  S
Fe619       O637   2.086       .  S
Fe619       O624   2.074       .  S
Fe619       O631   2.063       .  S
Fe619       O620   2.077       .  S
Fe619       O628   1.975       .  S
O620        C627   1.268       .  A
O621        C635   1.267       .  A
O622        C627   1.264       .  A
O623        C626   1.273       .  A
O624        C636   1.269       .  A
O625        C638   1.265       .  A
C626        O631   1.273       .  A
C626        C805   1.471       .  S
C627       C3589   1.479       .  S
O629        C632   1.269       .  A
O630        C632   1.272       .  A
C632       C1454   1.482       .  S
O633        C638   1.265       .  A
O634        C636   1.266       .  A
C635        O637   1.273       .  A
C635        C773   1.473       .  S
C636       C1102   1.483       .  S
C638        C878   1.480       .  S
Fe639       O655   2.069       .  S
Fe639       O645   2.055       .  S
Fe639       O652   2.072       .  S
Fe639       O644   2.058       .  S
Fe639       O650   1.975       .  S
Fe640       O643   2.053       .  S
Fe640       O647   2.056       .  S
Fe640       O651   2.052       .  S
Fe640       O656   2.047       .  S
Fe640       O650   1.967       .  S
Fe641       O659   2.083       .  S
Fe641       O646   2.072       .  S
Fe641       O653   2.072       .  S
Fe641       O642   2.078       .  S
Fe641       O650   1.983       .  S
O642        C649   1.273       .  A
O643        C657   1.265       .  A
O644        C649   1.272       .  A
O645        C648   1.266       .  A
O646        C658   1.270       .  A
O647        C660   1.270       .  A
C648        O653   1.267       .  A
C648       C3438   1.484       .  S
C649        C814   1.485       .  S
O651        C654   1.264       .  A
O652        C654   1.266       .  A
C654        C837   1.483       .  S
O655        C660   1.271       .  A
O656        C658   1.266       .  A
C657        O659   1.271       .  A
C657       C1198   1.495       .  S
C658        C741   1.472       .  S
C660       C1678   1.464       .  S
Fe661       O677   2.062       .  S
Fe661       O667   2.057       .  S
Fe661       O674   2.076       .  S
Fe661       O666   2.044       .  S
Fe661       O672   1.979       .  S
Fe662       O665   2.050       .  S
Fe662       O669   2.057       .  S
Fe662       O673   2.050       .  S
Fe662       O678   2.044       .  S
Fe662       O672   1.965       .  S
Fe663       O681   2.086       .  S
Fe663       O668   2.077       .  S
Fe663       O675   2.066       .  S
Fe663       O664   2.082       .  S
Fe663       O672   1.984       .  S
O664        C671   1.269       .  A
O665        C679   1.267       .  A
O666        C671   1.264       .  A
O667        C670   1.271       .  A
O668        C680   1.269       .  A
O669        C682   1.265       .  A
C670        O675   1.271       .  A
C670        C718   1.478       .  S
C671       C2734   1.474       .  S
O673        C676   1.269       .  A
O674        C676   1.271       .  A
C676       C1125   1.472       .  S
O677        C682   1.263       .  A
O678        C680   1.266       .  A
C679        O681   1.272       .  A
C679       C1038   1.475       .  S
C680       C1742   1.489       .  S
C682        C782   1.497       .  S
Fe683       O699   2.055       .  S
Fe683       O689   2.064       .  S
Fe683       O696   2.078       .  S
Fe683       O688   2.047       .  S
Fe683       O694   1.959       .  S
Fe684       O687   2.045       .  S
Fe684       O691   2.067       .  S
Fe684       O695   2.049       .  S
Fe684       O700   2.060       .  S
Fe684       O694   1.953       .  S
Fe685       O703   2.085       .  S
Fe685       O690   2.064       .  S
Fe685       O697   2.064       .  S
Fe685       O686   2.083       .  S
Fe685       O694   1.961       .  S
O686        C693   1.275       .  A
O687        C701   1.269       .  A
O688        C693   1.270       .  A
O689        C692   1.268       .  A
O690        C702   1.267       .  A
O691        C704   1.269       .  A
C692        O697   1.266       .  A
C692       C2638   1.476       .  S
C693        C709   1.474       .  S
O695        C698   1.266       .  A
O696        C698   1.270       .  A
C698        C750   1.475       .  S
O699        C704   1.267       .  A
O700        C702   1.267       .  A
C701        O703   1.273       .  A
C701       C1925   1.489       .  S
C702        C974   1.473       .  S
C704       C1230   1.464       .  S
C705        C706   1.399       .  A
C705        C710   1.401       .  A
C705        H715   1.085       .  S
C706        C711   1.473   1_556  S
C706        C707   1.408       .  A
C707        C708   1.400       .  A
C707        C712   1.507       .  S
C708        C709   1.405       .  A
C708        H713   1.084       .  S
C709        C710   1.418       .  A
C710        C714   1.507       .  S
C711        C716   1.408       .  A
C711        C720   1.399       .  A
C712        H728   1.110       .  S
C712        H729   1.110       .  S
C712        H730   1.111       .  S
C714        H725   1.111       .  S
C714        H726   1.110       .  S
C714        H727   1.104       .  S
C716        C717   1.399       .  A
C716        C721   1.507       .  S
C717        C718   1.406       .  A
C717        H722   1.084       .  S
C718        C719   1.417       .  A
C719        C720   1.403       .  A
C719        C723   1.507       .  S
C720        H724   1.084       .  S
C721        H731   1.111       .  S
C721        H732   1.110   1_554  S
C721        H733   1.110   1_554  S
C723        H734   1.109       .  S
C723        H735   1.110       .  S
C723        H736   1.111       .  S
C737        C738   1.400       .  A
C737        C742   1.401   1_545  A
C737        H747   1.084       .  S
C738        C743   1.476       .  S
C738        C739   1.411       .  A
C739        C740   1.401       .  A
C739        C744   1.507       .  S
C740        C741   1.402   1_545  A
C740        H745   1.084       .  S
C741        C742   1.416       .  A
C742        C746   1.508       .  S
C743        C748   1.410       .  A
C743        C752   1.401       .  A
C744        H760   1.110       .  S
C744        H761   1.111       .  S
C744        H762   1.111       .  S
C746        H757   1.110       .  S
C746        H758   1.111       .  S
C746        H759   1.109       .  S
C748        C749   1.399       .  A
C748        C753   1.508       .  S
C749        C750   1.404       .  A
C749        H754   1.084       .  S
C750        C751   1.417       .  A
C751        C752   1.404       .  A
C751        C755   1.507       .  S
C752        H756   1.084       .  S
C753        H763   1.111       .  S
C753        H764   1.110       .  S
C753        H765   1.110       .  S
C755        H766   1.111       .  S
C755        H767   1.107       .  S
C755        H768   1.110       .  S
C769        C770   1.399       .  A
C769        C774   1.400       .  A
C769        H779   1.085       .  S
C770        C775   1.479       .  S
C770        C771   1.409       .  A
C771        C772   1.406   1_545  A
C771        C776   1.506       .  S
C772        C773   1.406       .  A
C772        H777   1.084       .  S
C773        C774   1.418   1_565  A
C774        C778   1.511       .  S
C775        C780   1.408       .  A
C775        C784   1.399       .  A
C776        H792   1.110       .  S
C776        H793   1.109       .  S
C776        H794   1.111       .  S
C778        H789   1.111       .  S
C778        H790   1.110       .  S
C778        H791   1.105   1_545  S
C780        C781   1.400       .  A
C780        C785   1.509       .  S
C781        C782   1.410       .  A
C781        H786   1.083       .  S
C782        C783   1.425       .  A
C783        C784   1.407       .  A
C783        C787   1.508       .  S
C784        H788   1.084       .  S
C785        H795   1.111       .  S
C785        H796   1.110       .  S
C785        H797   1.109       .  S
C787        H798   1.111       .  S
C787        H799   1.110       .  S
C787        H800   1.110       .  S
C801        C802   1.400       .  A
C801        C806   1.401       .  A
C801        H811   1.085       .  S
C802        C807   1.477   1_554  S
C802        C803   1.409       .  A
C803        C804   1.402       .  A
C803        C808   1.506       .  S
C804        C805   1.404       .  A
C804        H809   1.084       .  S
C805        C806   1.416       .  A
C806        C810   1.509       .  S
C807        C812   1.408       .  A
C807        C816   1.399       .  A
C808        H824   1.110   1_554  S
C808        H825   1.110   1_554  S
C808        H826   1.111       .  S
C810        H821   1.111       .  S
C810        H822   1.110       .  S
C810        H823   1.107       .  S
C812        C813   1.400       .  A
C812        C817   1.507       .  S
C813        C814   1.406       .  A
C813        H818   1.083       .  S
C814        C815   1.421       .  A
C815        C816   1.405       .  A
C815        C819   1.508       .  S
C816        H820   1.084       .  S
C817        H827   1.111       .  S
C817        H828   1.110       .  S
C817        H829   1.110       .  S
C819        H830   1.109       .  S
C819        H831   1.110       .  S
C819        H832   1.111       .  S
C833        C834   1.402       .  A
C833        C838   1.407       .  A
C833        H843   1.084       .  S
C834        C839   1.482       .  S
C834        C835   1.410       .  A
C835        C836   1.400       .  A
C835        C840   1.508       .  S
C836        C837   1.406       .  A
C836        H841   1.084       .  S
C837        C838   1.418       .  A
C838        C842   1.507       .  S
C839        C844   1.412       .  A
C839        C848   1.401       .  A
C840        H856   1.110       .  S
C840        H857   1.110       .  S
C840        H858   1.111       .  S
C842        H853   1.110       .  S
C842        H854   1.111       .  S
C842        H855   1.107       .  S
C844        C845   1.404       .  A
C844        C849   1.506       .  S
C845        C846   1.403       .  A
C845        H850   1.084       .  S
C846        C847   1.417       .  A
C847        C848   1.403       .  A
C847        C851   1.508   1_455  S
C848        H852   1.084       .  S
C849        H859   1.111       .  S
C849        H860   1.110       .  S
C849        H861   1.111       .  S
C851        H862   1.110       .  S
C851        H863   1.109       .  S
C851        H864   1.110       .  S
C865        C866   1.400       .  A
C865        C870   1.407       .  A
C865        H875   1.084       .  S
C866        C871   1.483       .  S
C866        C867   1.410       .  A
C867        C868   1.403       .  A
C867        C872   1.507       .  S
C868        C869   1.407   1_455  A
C868        H873   1.084       .  S
C869        C870   1.422   1_655  A
C870        C874   1.509   1_455  S
C871        C876   1.411       .  A
C871        C880   1.398       .  A
C872        H888   1.110       .  S
C872        H889   1.110       .  S
C872        H890   1.111       .  S
C874        H885   1.111       .  S
C874        H886   1.111       .  S
C874        H887   1.109       .  S
C876        C877   1.410       .  A
C876        C881   1.504       .  S
C877        C878   1.407       .  A
C877        H882   1.084       .  S
C878        C879   1.420       .  A
C879        C880   1.398       .  A
C879        C883   1.511       .  S
C880        H884   1.085       .  S
C881        H891   1.111       .  S
C881        H892   1.110       .  S
C881        H893   1.110       .  S
C883        H894   1.110       .  S
C883        H895   1.104       .  S
C883        H896   1.111       .  S
C897        C898   1.399       .  A
C897        C902   1.400       .  A
C897        H907   1.085       .  S
C898        C903   1.471   1_554  S
C898        C899   1.409       .  A
C899        C900   1.399       .  A
C899        C904   1.507       .  S
C900        C901   1.402       .  A
C900        H905   1.084       .  S
C901        C902   1.416       .  A
C902        C906   1.509       .  S
C903        C908   1.408       .  A
C903        C912   1.399       .  A
C904        H920   1.110   1_554  S
C904        H921   1.110   1_554  S
C904        H922   1.111       .  S
C906        H917   1.110       .  S
C906        H918   1.111       .  S
C906        H919   1.107       .  S
C908        C909   1.399       .  A
C908        C913   1.507       .  S
C909        C910   1.404       .  A
C909        H914   1.084       .  S
C910        C911   1.417       .  A
C911        C912   1.400       .  A
C911        C915   1.509       .  S
C912        H916   1.085       .  S
C913        H923   1.111       .  S
C913        H924   1.110       .  S
C913        H925   1.110       .  S
C915        H926   1.111       .  S
C915        H927   1.107       .  S
C915        H928   1.110       .  S
C929        C930   1.401       .  A
C929        C934   1.405       .  A
C929        H939   1.084       .  S
C930        C935   1.483       .  S
C930        C931   1.410       .  A
C931        C932   1.404       .  A
C931        C936   1.507       .  S
C932        C933   1.405       .  A
C932        H937   1.084       .  S
C933        C934   1.418       .  A
C934        C938   1.506   1_565  S
C935        C940   1.409       .  A
C935        C944   1.403       .  A
C936        H952   1.110       .  S
C936        H953   1.110       .  S
C936        H954   1.111       .  S
C938        H949   1.110       .  S
C938        H950   1.111       .  S
C938        H951   1.108       .  S
C940        C941   1.399       .  A
C940        C945   1.508       .  S
C941        C942   1.406       .  A
C941        H946   1.084       .  S
C942        C943   1.418       .  A
C943        C944   1.409       .  A
C943        C947   1.507       .  S
C944        H948   1.084       .  S
C945        H955   1.111       .  S
C945        H956   1.110       .  S
C945        H957   1.110       .  S
C947        H958   1.111       .  S
C947        H959   1.107       .  S
C947        H960   1.110       .  S
C961        C962   1.400       .  A
C961        C966   1.405       .  A
C961        H971   1.084       .  S
C962        C967   1.478       .  S
C962        C963   1.408       .  A
C963        C964   1.401       .  A
C963        C968   1.507       .  S
C964        C965   1.408       .  A
C964        H969   1.084       .  S
C965        C966   1.418       .  A
C966        C970   1.507       .  S
C967        C972   1.409       .  A
C967        C976   1.399       .  A
C968        H984   1.110       .  S
C968        H985   1.110       .  S
C968        H986   1.111       .  S
C970        H981   1.111       .  S
C970        H982   1.108       .  S
C970        H983   1.109       .  S
C972        C973   1.406       .  A
C972        C977   1.505       .  S
C973        C974   1.405   1_655  A
C973        H978   1.084   1_655  S
C974        C975   1.418   1_455  A
C975        C976   1.399       .  A
C975        C979   1.511       .  S
C976        H980   1.085       .  S
C977        H987   1.111       .  S
C977        H988   1.110       .  S
C977        H989   1.110       .  S
C979        H990   1.110       .  S
C979        H991   1.106   1_655  S
C979        H992   1.111       .  S
C993        C994   1.400       .  A
C993        C998   1.406       .  A
C993       H1003   1.085       .  S
C994        C999   1.490       .  S
C994        C995   1.412       .  A
C995        C996   1.408       .  A
C995       C1000   1.506       .  S
C996        C997   1.407       .  A
C996       H1001   1.084       .  S
C997        C998   1.423       .  A
C998       C1002   1.510       .  S
C999       C1004   1.413       .  A
C999       C1008   1.399       .  A
C1000      H1016   1.110       .  S
C1000      H1017   1.110       .  S
C1000      H1018   1.111       .  S
C1002      H1013   1.110       .  S
C1002      H1014   1.111       .  S
C1002      H1015   1.103       .  S
C1004      C1005   1.412       .  A
C1004      C1009   1.505       .  S
C1005      C1006   1.408       .  A
C1005      H1010   1.083       .  S
C1006      C1007   1.422       .  A
C1007      C1008   1.401       .  A
C1007      C1011   1.511       .  S
C1008      H1012   1.085       .  S
C1009      H1019   1.111       .  S
C1009      H1020   1.110       .  S
C1009      H1021   1.110       .  S
C1011      H1022   1.111       .  S
C1011      H1023   1.106   1_565  S
C1011      H1024   1.110       .  S
C1025      C1026   1.397       .  A
C1025      C1030   1.404       .  A
C1025      H1035   1.084       .  S
C1026      C1031   1.481       .  S
C1026      C1027   1.409       .  A
C1027      C1028   1.405       .  A
C1027      C1032   1.506       .  S
C1028      C1029   1.409       .  A
C1028      H1033   1.084       .  S
C1029      C1030   1.425       .  A
C1030      C1034   1.509       .  S
C1031      C1036   1.412       .  A
C1031      C1040   1.399       .  A
C1032      H1048   1.110       .  S
C1032      H1049   1.110       .  S
C1032      H1050   1.111       .  S
C1034      H1045   1.110       .  S
C1034      H1046   1.111       .  S
C1034      H1047   1.111       .  S
C1036      C1037   1.408       .  A
C1036      C1041   1.505       .  S
C1037      C1038   1.405   1_655  A
C1037      H1042   1.083   1_655  S
C1038      C1039   1.417   1_455  A
C1039      C1040   1.398       .  A
C1039      C1043   1.510       .  S
C1040      H1044   1.085       .  S
C1041      H1051   1.111       .  S
C1041      H1052   1.110       .  S
C1041      H1053   1.110       .  S
C1043      H1054   1.111       .  S
C1043      H1055   1.106   1_655  S
C1043      H1056   1.110   1_655  S
C1057      C1058   1.400       .  A
C1057      C1062   1.402       .  A
C1057      H1067   1.085       .  S
C1058      C1063   1.472   1_554  S
C1058      C1059   1.408       .  A
C1059      C1060   1.398       .  A
C1059      C1064   1.507       .  S
C1060      C1061   1.404       .  A
C1060      H1065   1.084       .  S
C1061      C1062   1.416       .  A
C1062      C1066   1.508       .  S
C1063      C1068   1.409       .  A
C1063      C1072   1.400       .  A
C1064      H1080   1.110   1_554  S
C1064      H1081   1.110   1_554  S
C1064      H1082   1.111       .  S
C1066      H1077   1.111       .  S
C1066      H1078   1.110       .  S
C1066      H1079   1.106       .  S
C1068      C1069   1.397       .  A
C1068      C1073   1.508       .  S
C1069      C1070   1.402       .  A
C1069      H1074   1.085       .  S
C1070      C1071   1.416       .  A
C1071      C1072   1.403       .  A
C1071      C1075   1.508       .  S
C1072      H1076   1.084       .  S
C1073      H1083   1.111       .  S
C1073      H1084   1.110       .  S
C1073      H1085   1.110       .  S
C1075      H1086   1.110       .  S
C1075      H1087   1.107       .  S
C1075      H1088   1.111       .  S
C1089      C1090   1.404   1_565  A
C1089      C1094   1.409   1_565  A
C1089      H1099   1.084       .  S
C1090      C1095   1.482   1_545  S
C1090      C1091   1.411       .  A
C1091      C1092   1.399       .  A
C1091      C1096   1.510       .  S
C1092      C1093   1.404       .  A
C1092      H1097   1.084       .  S
C1093      C1094   1.419       .  A
C1094      C1098   1.507   1_545  S
C1095      C1100   1.411       .  A
C1095      C1104   1.399       .  A
C1096      H1112   1.110       .  S
C1096      H1113   1.108       .  S
C1096      H1114   1.111       .  S
C1098      H1109   1.110       .  S
C1098      H1110   1.111       .  S
C1098      H1111   1.105   1_565  S
C1100      C1101   1.409       .  A
C1100      C1105   1.506   1_565  S
C1101      C1102   1.406       .  A
C1101      H1106   1.084       .  S
C1102      C1103   1.419       .  A
C1103      C1104   1.401       .  A
C1103      C1107   1.510       .  S
C1104      H1108   1.084       .  S
C1105      H1115   1.111       .  S
C1105      H1116   1.110       .  S
C1105      H1117   1.108       .  S
C1107      H1118   1.111       .  S
C1107      H1119   1.110       .  S
C1107      H1120   1.109       .  S
C1121      C1122   1.400       .  A
C1121      C1126   1.399       .  A
C1121      H1131   1.085       .  S
C1122      C1127   1.478       .  S
C1122      C1123   1.413       .  A
C1123      C1124   1.404       .  A
C1123      C1128   1.506       .  S
C1124      C1125   1.402       .  A
C1124      H1129   1.084       .  S
C1125      C1126   1.415       .  A
C1126      C1130   1.507       .  S
C1127      C1132   1.408       .  A
C1127      C1136   1.395       .  A
C1128      H1144   1.109       .  S
C1128      H1145   1.110       .  S
C1128      H1146   1.111       .  S
C1130      H1141   1.110       .  S
C1130      H1142   1.109       .  S
C1130      H1143   1.109       .  S
C1132      C1133   1.409       .  A
C1132      C1137   1.504       .  S
C1133      C1134   1.410       .  A
C1133      H1138   1.084       .  S
C1134      C1135   1.426       .  A
C1135      C1136   1.396       .  A
C1135      C1139   1.512       .  S
C1136      H1140   1.085       .  S
C1137      H1147   1.111       .  S
C1137      H1148   1.110       .  S
C1137      H1149   1.110       .  S
C1139      H1150   1.111       .  S
C1139      H1151   1.109       .  S
C1139      H1152   1.109       .  S
C1153      C1154   1.398       .  A
C1153      C1158   1.402       .  A
C1153      H1163   1.084       .  S
C1154      C1159   1.481       .  S
C1154      C1155   1.410       .  A
C1155      C1156   1.405       .  A
C1155      C1160   1.506       .  S
C1156      C1157   1.409       .  A
C1156      H1161   1.084       .  S
C1157      C1158   1.423       .  A
C1158      C1162   1.509       .  S
C1159      C1164   1.413       .  A
C1159      C1168   1.400       .  A
C1160      H1176   1.110       .  S
C1160      H1177   1.110       .  S
C1160      H1178   1.111       .  S
C1162      H1173   1.109       .  S
C1162      H1174   1.111       .  S
C1162      H1175   1.110       .  S
C1164      C1165   1.406       .  A
C1164      C1169   1.506       .  S
C1165      C1166   1.403       .  A
C1165      H1170   1.084       .  S
C1166      C1167   1.416       .  A
C1167      C1168   1.401       .  A
C1167      C1171   1.509       .  S
C1168      H1172   1.085       .  S
C1169      H1179   1.111       .  S
C1169      H1180   1.110       .  S
C1169      H1181   1.111       .  S
C1171      H1182   1.111       .  S
C1171      H1183   1.107       .  S
C1171      H1184   1.110       .  S
C1185      C1186   1.402       .  A
C1185      C1190   1.402       .  A
C1185      H1195   1.084       .  S
C1186      C1191   1.489   1_545  S
C1186      C1187   1.415       .  A
C1187      C1188   1.408       .  A
C1187      C1192   1.507   1_545  S
C1188      C1189   1.404       .  A
C1188      H1193   1.084       .  S
C1189      C1190   1.418       .  A
C1190      C1194   1.509       .  S
C1191      C1196   1.412       .  A
C1191      C1200   1.400       .  A
C1192      H1208   1.109       .  S
C1192      H1209   1.110       .  S
C1192      H1210   1.111       .  S
C1194      H1205   1.111       .  S
C1194      H1206   1.110       .  S
C1194      H1207   1.108       .  S
C1196      C1197   1.409       .  A
C1196      C1201   1.506   1_565  S
C1197      C1198   1.410       .  A
C1197      H1202   1.084       .  S
C1198      C1199   1.423       .  A
C1199      C1200   1.402       .  A
C1199      C1203   1.511       .  S
C1200      H1204   1.084       .  S
C1201      H1211   1.111       .  S
C1201      H1212   1.109       .  S
C1201      H1213   1.110       .  S
C1203      H1214   1.111       .  S
C1203      H1215   1.109       .  S
C1203      H1216   1.111       .  S
C1217      C1218   1.402       .  A
C1217      C1222   1.403       .  A
C1217      H1227   1.084       .  S
C1218      C1223   1.476       .  S
C1218      C1219   1.412       .  A
C1219      C1220   1.398       .  A
C1219      C1224   1.509       .  S
C1220      C1221   1.401       .  A
C1220      H1225   1.085       .  S
C1221      C1222   1.414       .  A
C1222      C1226   1.507       .  S
C1223      C1228   1.412       .  A
C1223      C1232   1.401       .  A
C1224      H1240   1.110       .  S
C1224      H1241   1.110       .  S
C1224      H1242   1.111       .  S
C1226      H1237   1.110       .  S
C1226      H1238   1.110       .  S
C1226      H1239   1.108       .  S
C1228      C1229   1.399       .  A
C1228      C1233   1.508       .  S
C1229      C1230   1.400       .  A
C1229      H1234   1.085       .  S
C1230      C1231   1.415       .  A
C1231      C1232   1.402       .  A
C1231      C1235   1.509       .  S
C1232      H1236   1.084       .  S
C1233      H1243   1.111       .  S
C1233      H1244   1.110       .  S
C1233      H1245   1.110       .  S
C1235      H1246   1.110       .  S
C1235      H1247   1.107       .  S
C1235      H1248   1.111       .  S
C1249      C1250   1.402       .  A
C1249      C1254   1.403       .  A
C1249      H1259   1.084       .  S
C1250      C1255   1.478       .  S
C1250      C1251   1.411       .  A
C1251      C1252   1.400       .  A
C1251      C1256   1.507       .  S
C1252      C1253   1.403       .  A
C1252      H1257   1.085       .  S
C1253      C1254   1.415       .  A
C1254      C1258   1.508       .  S
C1255      C1260   1.409       .  A
C1255      C1264   1.400       .  A
C1256      H1272   1.110       .  S
C1256      H1273   1.110       .  S
C1256      H1274   1.111       .  S
C1258      H1269   1.111       .  S
C1258      H1270   1.111       .  S
C1258      H1271   1.110       .  S
C1260      C1261   1.396       .  A
C1260      C1265   1.511       .  S
C1261      C1262   1.409       .  A
C1261      H1266   1.083       .  S
C1262      C1263   1.423       .  A
C1263      C1264   1.408       .  A
C1263      C1267   1.507       .  S
C1264      H1268   1.084       .  S
C1265      H1275   1.111       .  S
C1265      H1276   1.109       .  S
C1265      H1277   1.110       .  S
C1267      H1278   1.111       .  S
C1267      H1279   1.110       .  S
C1267      H1280   1.110       .  S
C1281      C1282   1.399       .  A
C1281      C1286   1.403       .  A
C1281      H1291   1.085       .  S
C1282      C1287   1.483   1_545  S
C1282      C1283   1.408       .  A
C1283      C1284   1.407       .  A
C1283      C1288   1.507   1_545  S
C1284      C1285   1.411       .  A
C1284      H1289   1.083       .  S
C1285      C1286   1.424       .  A
C1286      C1290   1.510       .  S
C1287      C1292   1.411       .  A
C1287      C1296   1.401       .  A
C1288      H1304   1.110       .  S
C1288      H1305   1.108       .  S
C1288      H1306   1.111       .  S
C1290      H1301   1.111       .  S
C1290      H1302   1.111       .  S
C1290      H1303   1.109       .  S
C1292      C1293   1.400       .  A
C1292      C1297   1.510       .  S
C1293      C1294   1.408       .  A
C1293      H1298   1.085       .  S
C1294      C1295   1.423       .  A
C1295      C1296   1.408       .  A
C1295      C1299   1.509       .  S
C1296      H1300   1.085   1_565  S
C1297      H1307   1.111       .  S
C1297      H1308   1.110       .  S
C1297      H1309   1.107       .  S
C1299      H1310   1.111   1_565  S
C1299      H1311   1.101       .  S
C1299      H1312   1.110       .  S
C1313      C1314   1.400       .  A
C1313      C1318   1.404       .  A
C1313      H1323   1.084       .  S
C1314      C1319   1.477       .  S
C1314      C1315   1.408       .  A
C1315      C1316   1.400       .  A
C1315      C1320   1.507       .  S
C1316      C1317   1.406       .  A
C1316      H1321   1.084       .  S
C1317      C1318   1.418       .  A
C1318      C1322   1.508       .  S
C1319      C1324   1.408       .  A
C1319      C1328   1.401       .  A
C1320      H1336   1.110       .  S
C1320      H1337   1.110       .  S
C1320      H1338   1.111       .  S
C1322      H1333   1.111       .  S
C1322      H1334   1.109       .  S
C1322      H1335   1.111       .  S
C1324      C1325   1.401       .  A
C1324      C1329   1.507       .  S
C1325      C1326   1.406       .  A
C1325      H1330   1.084       .  S
C1326      C1327   1.417       .  A
C1327      C1328   1.403       .  A
C1327      C1331   1.508       .  S
C1328      H1332   1.085       .  S
C1329      H1339   1.111       .  S
C1329      H1340   1.110       .  S
C1329      H1341   1.110       .  S
C1331      H1342   1.110       .  S
C1331      H1343   1.106       .  S
C1331      H1344   1.111       .  S
C1345      C1346   1.401       .  A
C1345      C1350   1.399       .  A
C1345      H1355   1.084       .  S
C1346      C1351   1.472       .  S
C1346      C1347   1.410       .  A
C1347      C1348   1.402       .  A
C1347      C1352   1.506       .  S
C1348      C1349   1.401       .  A
C1348      H1353   1.084       .  S
C1349      C1350   1.411       .  A
C1350      C1354   1.508       .  S
C1351      C1356   1.409       .  A
C1351      C1360   1.399       .  A
C1352      H1368   1.110       .  S
C1352      H1369   1.110       .  S
C1352      H1370   1.111       .  S
C1354      H1365   1.110       .  S
C1354      H1366   1.111       .  S
C1354      H1367   1.109       .  S
C1356      C1357   1.404       .  A
C1356      C1361   1.505       .  S
C1357      C1358   1.404       .  A
C1357      H1362   1.082       .  S
C1358      C1359   1.413       .  A
C1359      C1360   1.395       .  A
C1359      C1363   1.509       .  S
C1360      H1364   1.085       .  S
C1361      H1371   1.111       .  S
C1361      H1372   1.110       .  S
C1361      H1373   1.110       .  S
C1363      H1374   1.110       .  S
C1363      H1375   1.108       .  S
C1363      H1376   1.111       .  S
C1377      C1378   1.401       .  A
C1377      C1382   1.402       .  A
C1377      H1387   1.084       .  S
C1378      C1383   1.485   1_565  S
C1378      C1379   1.412       .  A
C1379      C1380   1.407       .  A
C1379      C1384   1.506   1_565  S
C1380      C1381   1.406       .  A
C1380      H1385   1.084       .  S
C1381      C1382   1.418       .  A
C1382      C1386   1.509       .  S
C1383      C1388   1.411       .  A
C1383      C1392   1.400       .  A
C1384      H1400   1.109       .  S
C1384      H1401   1.110       .  S
C1384      H1402   1.111       .  S
C1386      H1397   1.111       .  S
C1386      H1398   1.110       .  S
C1386      H1399   1.108       .  S
C1388      C1389   1.407       .  A
C1388      C1393   1.506   1_545  S
C1389      C1390   1.408       .  A
C1389      H1394   1.084       .  S
C1390      C1391   1.421       .  A
C1391      C1392   1.402       .  A
C1391      C1395   1.510       .  S
C1392      H1396   1.084       .  S
C1393      H1403   1.111       .  S
C1393      H1404   1.109       .  S
C1393      H1405   1.110       .  S
C1395      H1406   1.109       .  S
C1395      H1407   1.111       .  S
C1395      H1408   1.111       .  S
C1409      C1410   1.401   1_655  A
C1409      C1414   1.401   1_655  A
C1409      H1419   1.084       .  S
C1410      C1415   1.482   1_455  S
C1410      C1411   1.413       .  A
C1411      C1412   1.407       .  A
C1411      C1416   1.506       .  S
C1412      C1413   1.402       .  A
C1412      H1417   1.084       .  S
C1413      C1414   1.412       .  A
C1414      C1418   1.508   1_455  S
C1415      C1420   1.411       .  A
C1415      C1424   1.401   1_655  A
C1416      H1432   1.110       .  S
C1416      H1433   1.110       .  S
C1416      H1434   1.111       .  S
C1418      H1429   1.111       .  S
C1418      H1430   1.110       .  S
C1418      H1431   1.110       .  S
C1420      C1421   1.407       .  A
C1420      C1425   1.505       .  S
C1421      C1422   1.405       .  A
C1421      H1426   1.084       .  S
C1422      C1423   1.416       .  A
C1423      C1424   1.399   1_655  A
C1423      C1427   1.510   1_655  S
C1424      H1428   1.085       .  S
C1425      H1435   1.111       .  S
C1425      H1436   1.110       .  S
C1425      H1437   1.110       .  S
C1427      H1438   1.110       .  S
C1427      H1439   1.108       .  S
C1427      H1440   1.111       .  S
C1441      C1442   1.399       .  A
C1441      C1446   1.401       .  A
C1441      H1451   1.084       .  S
C1442      C1447   1.470       .  S
C1442      C1443   1.408       .  A
C1443      C1444   1.398       .  A
C1443      C1448   1.507       .  S
C1444      C1445   1.404       .  A
C1444      H1449   1.085       .  S
C1445      C1446   1.417       .  A
C1446      C1450   1.508       .  S
C1447      C1452   1.408       .  A
C1447      C1456   1.399       .  A
C1448      H1464   1.110       .  S
C1448      H1465   1.110       .  S
C1448      H1466   1.111       .  S
C1450      H1461   1.111       .  S
C1450      H1462   1.111       .  S
C1450      H1463   1.110       .  S
C1452      C1453   1.391       .  A
C1452      C1457   1.511       .  S
C1453      C1454   1.406       .  A
C1453      H1458   1.084       .  S
C1454      C1455   1.421       .  A
C1455      C1456   1.407       .  A
C1455      C1459   1.507       .  S
C1456      H1460   1.084       .  S
C1457      H1467   1.111       .  S
C1457      H1468   1.110       .  S
C1457      H1469   1.110       .  S
C1459      H1470   1.111       .  S
C1459      H1471   1.111       .  S
C1459      H1472   1.109       .  S
C1473      C1474   1.398       .  A
C1473      C1478   1.399       .  A
C1473      H1483   1.085       .  S
C1474      C1479   1.481       .  S
C1474      C1475   1.410       .  A
C1475      C1476   1.408       .  A
C1475      C1480   1.505       .  S
C1476      C1477   1.407       .  A
C1476      H1481   1.084       .  S
C1477      C1478   1.420       .  A
C1478      C1482   1.511       .  S
C1479      C1484   1.410       .  A
C1479      C1488   1.400       .  A
C1480      H1496   1.110       .  S
C1480      H1497   1.110       .  S
C1480      H1498   1.111       .  S
C1482      H1493   1.111       .  S
C1482      H1494   1.110       .  S
C1482      H1495   1.105       .  S
C1484      C1485   1.403       .  A
C1484      C1489   1.507       .  S
C1485      C1486   1.407   1_655  A
C1485      H1490   1.083       .  S
C1486      C1487   1.420   1_455  A
C1487      C1488   1.406       .  A
C1487      C1491   1.508   1_655  S
C1488      H1492   1.084       .  S
C1489      H1499   1.111       .  S
C1489      H1500   1.110       .  S
C1489      H1501   1.110       .  S
C1491      H1502   1.111       .  S
C1491      H1503   1.109       .  S
C1491      H1504   1.110       .  S
C1505      C1506   1.399       .  A
C1505      C1510   1.402       .  A
C1505      H1515   1.084       .  S
C1506      C1511   1.480       .  S
C1506      C1507   1.408       .  A
C1507      C1508   1.406       .  A
C1507      C1512   1.505       .  S
C1508      C1509   1.409       .  A
C1508      H1513   1.084       .  S
C1509      C1510   1.421       .  A
C1510      C1514   1.509       .  S
C1511      C1516   1.410       .  A
C1511      C1520   1.399       .  A
C1512      H1528   1.110       .  S
C1512      H1529   1.110       .  S
C1512      H1530   1.111       .  S
C1514      H1525   1.111       .  S
C1514      H1526   1.111       .  S
C1514      H1527   1.110       .  S
C1516      C1517   1.404       .  A
C1516      C1521   1.507       .  S
C1517      C1518   1.406       .  A
C1517      H1522   1.084       .  S
C1518      C1519   1.420       .  A
C1519      C1520   1.404       .  A
C1519      C1523   1.509   1_565  S
C1520      H1524   1.084       .  S
C1521      H1531   1.111       .  S
C1521      H1532   1.110       .  S
C1521      H1533   1.110       .  S
C1523      H1534   1.111       .  S
C1523      H1535   1.109       .  S
C1523      H1536   1.110       .  S
C1537      C1538   1.401       .  A
C1537      C1542   1.404       .  A
C1537      H1547   1.085       .  S
C1538      C1543   1.490       .  S
C1538      C1539   1.413       .  A
C1539      C1540   1.408   1_655  A
C1539      C1544   1.506       .  S
C1540      C1541   1.406       .  A
C1540      H1545   1.084       .  S
C1541      C1542   1.419   1_455  A
C1542      C1546   1.507       .  S
C1543      C1548   1.411       .  A
C1543      C1552   1.400       .  A
C1544      H1560   1.109       .  S
C1544      H1561   1.110       .  S
C1544      H1562   1.111       .  S
C1546      H1557   1.110       .  S
C1546      H1558   1.111       .  S
C1546      H1559   1.102   1_655  S
C1548      C1549   1.409       .  A
C1548      C1553   1.506       .  S
C1549      C1550   1.409       .  A
C1549      H1554   1.084       .  S
C1550      C1551   1.423       .  A
C1551      C1552   1.404       .  A
C1551      C1555   1.511       .  S
C1552      H1556   1.085       .  S
C1553      H1563   1.111       .  S
C1553      H1564   1.109       .  S
C1553      H1565   1.110       .  S
C1555      H1566   1.111       .  S
C1555      H1567   1.105       .  S
C1555      H1568   1.110       .  S
C1569      C1570   1.399       .  A
C1569      C1574   1.403       .  A
C1569      H1579   1.084       .  S
C1570      C1575   1.484       .  S
C1570      C1571   1.409       .  A
C1571      C1572   1.407       .  A
C1571      C1576   1.506       .  S
C1572      C1573   1.410       .  A
C1572      H1577   1.084       .  S
C1573      C1574   1.423       .  A
C1574      C1578   1.509       .  S
C1575      C1580   1.411       .  A
C1575      C1584   1.403       .  A
C1576      H1592   1.110       .  S
C1576      H1593   1.111       .  S
C1576      H1594   1.111       .  S
C1578      H1589   1.110       .  S
C1578      H1590   1.111       .  S
C1578      H1591   1.110       .  S
C1580      C1581   1.405   1_565  A
C1580      C1585   1.506       .  S
C1581      C1582   1.404       .  A
C1581      H1586   1.084       .  S
C1582      C1583   1.415   1_545  A
C1583      C1584   1.403       .  A
C1583      C1587   1.509       .  S
C1584      H1588   1.085       .  S
C1585      H1595   1.111       .  S
C1585      H1596   1.109       .  S
C1585      H1597   1.110       .  S
C1587      H1598   1.111       .  S
C1587      H1599   1.107       .  S
C1587      H1600   1.110       .  S
C1601      C1602   1.401       .  A
C1601      C1606   1.403       .  A
C1601      H1611   1.085       .  S
C1602      C1607   1.476       .  S
C1602      C1603   1.409       .  A
C1603      C1604   1.398       .  A
C1603      C1608   1.507       .  S
C1604      C1605   1.404       .  A
C1604      H1609   1.085       .  S
C1605      C1606   1.417       .  A
C1606      C1610   1.509       .  S
C1607      C1612   1.409       .  A
C1607      C1616   1.400       .  A
C1608      H1624   1.110       .  S
C1608      H1625   1.110       .  S
C1608      H1626   1.111       .  S
C1610      H1621   1.111       .  S
C1610      H1622   1.110       .  S
C1610      H1623   1.106       .  S
C1612      C1613   1.401       .  A
C1612      C1617   1.507       .  S
C1613      C1614   1.405       .  A
C1613      H1618   1.084       .  S
C1614      C1615   1.419       .  A
C1615      C1616   1.402       .  A
C1615      C1619   1.509       .  S
C1616      H1620   1.085       .  S
C1617      H1627   1.111       .  S
C1617      H1628   1.110       .  S
C1617      H1629   1.110       .  S
C1619      H1630   1.110       .  S
C1619      H1631   1.106       .  S
C1619      H1632   1.111       .  S
C1633      C1634   1.400       .  A
C1633      C1638   1.407       .  A
C1633      H1643   1.084   1_455  S
C1634      C1639   1.481       .  S
C1634      C1635   1.409       .  A
C1635      C1636   1.401       .  A
C1635      C1640   1.508       .  S
C1636      C1637   1.409       .  A
C1636      H1641   1.084       .  S
C1637      C1638   1.423       .  A
C1638      C1642   1.506       .  S
C1639      C1644   1.410   1_455  A
C1639      C1648   1.402       .  A
C1640      H1656   1.110       .  S
C1640      H1657   1.110       .  S
C1640      H1658   1.111       .  S
C1642      H1653   1.106       .  S
C1642      H1654   1.111       .  S
C1642      H1655   1.110       .  S
C1644      C1645   1.399       .  A
C1644      C1649   1.508       .  S
C1645      C1646   1.406       .  A
C1645      H1650   1.084       .  S
C1646      C1647   1.419       .  A
C1647      C1648   1.408   1_655  A
C1647      C1651   1.507   1_655  S
C1648      H1652   1.084       .  S
C1649      H1659   1.111       .  S
C1649      H1660   1.110       .  S
C1649      H1661   1.110       .  S
C1651      H1662   1.111       .  S
C1651      H1663   1.110   1_455  S
C1651      H1664   1.111       .  S
C1665      C1666   1.401       .  A
C1665      C1670   1.399       .  A
C1665      H1675   1.085       .  S
C1666      C1671   1.476       .  S
C1666      C1667   1.410       .  A
C1667      C1668   1.403       .  A
C1667      C1672   1.505       .  S
C1668      C1669   1.403       .  A
C1668      H1673   1.084       .  S
C1669      C1670   1.413       .  A
C1670      C1674   1.509       .  S
C1671      C1676   1.410       .  A
C1671      C1680   1.401       .  A
C1672      H1688   1.110       .  S
C1672      H1689   1.110       .  S
C1672      H1690   1.111       .  S
C1674      H1685   1.111       .  S
C1674      H1686   1.110       .  S
C1674      H1687   1.109       .  S
C1676      C1677   1.404       .  A
C1676      C1681   1.505       .  S
C1677      C1678   1.402       .  A
C1677      H1682   1.084       .  S
C1678      C1679   1.413       .  A
C1679      C1680   1.398       .  A
C1679      C1683   1.509       .  S
C1680      H1684   1.085       .  S
C1681      H1691   1.111       .  S
C1681      H1692   1.110       .  S
C1681      H1693   1.110       .  S
C1683      H1694   1.110       .  S
C1683      H1695   1.109       .  S
C1683      H1696   1.110       .  S
C1697      C1698   1.402       .  A
C1697      C1702   1.404       .  A
C1697      H1707   1.084       .  S
C1698      C1703   1.474       .  S
C1698      C1699   1.412       .  A
C1699      C1700   1.398       .  A
C1699      C1704   1.510       .  S
C1700      C1701   1.400       .  A
C1700      H1705   1.085       .  S
C1701      C1702   1.415       .  A
C1702      C1706   1.508       .  S
C1703      C1708   1.410       .  A
C1703      C1712   1.401       .  A
C1704      H1720   1.110       .  S
C1704      H1721   1.109       .  S
C1704      H1722   1.111       .  S
C1706      H1717   1.110       .  S
C1706      H1718   1.111       .  S
C1706      H1719   1.108       .  S
C1708      C1709   1.404       .  A
C1708      C1713   1.506       .  S
C1709      C1710   1.402       .  A
C1709      H1714   1.081       .  S
C1710      C1711   1.410       .  A
C1711      C1712   1.398       .  A
C1711      C1715   1.508       .  S
C1712      H1716   1.084       .  S
C1713      H1723   1.111       .  S
C1713      H1724   1.110       .  S
C1713      H1725   1.109       .  S
C1715      H1726   1.111       .  S
C1715      H1727   1.110       .  S
C1715      H1728   1.110       .  S
C1729      C1730   1.400       .  A
C1729      C1734   1.400       .  A
C1729      H1739   1.085       .  S
C1730      C1735   1.479   1_655  S
C1730      C1731   1.410       .  A
C1731      C1732   1.405       .  A
C1731      C1736   1.507   1_655  S
C1732      C1733   1.407       .  A
C1732      H1737   1.084       .  S
C1733      C1734   1.418       .  A
C1734      C1738   1.509       .  S
C1735      C1740   1.409       .  A
C1735      C1744   1.403       .  A
C1736      H1752   1.110       .  S
C1736      H1753   1.108       .  S
C1736      H1754   1.111       .  S
C1738      H1749   1.110       .  S
C1738      H1750   1.111       .  S
C1738      H1751   1.107       .  S
C1740      C1741   1.396       .  A
C1740      C1745   1.511       .  S
C1741      C1742   1.407       .  A
C1741      H1746   1.083       .  S
C1742      C1743   1.419       .  A
C1743      C1744   1.409       .  A
C1743      C1747   1.506       .  S
C1744      H1748   1.084   1_455  S
C1745      H1755   1.111       .  S
C1745      H1756   1.110       .  S
C1745      H1757   1.108       .  S
C1747      H1758   1.110       .  S
C1747      H1759   1.110       .  S
C1747      H1760   1.111   1_455  S
C1761      C1762   1.402       .  A
C1761      C1766   1.408   1_455  A
C1761      H1771   1.084       .  S
C1762      C1767   1.484       .  S
C1762      C1763   1.411       .  A
C1763      C1764   1.404       .  A
C1763      C1768   1.507       .  S
C1764      C1765   1.406   1_455  A
C1764      H1769   1.084       .  S
C1765      C1766   1.419       .  A
C1766      C1770   1.508       .  S
C1767      C1772   1.409       .  A
C1767      C1776   1.398       .  A
C1768      H1784   1.110       .  S
C1768      H1785   1.109       .  S
C1768      H1786   1.111       .  S
C1770      H1781   1.110       .  S
C1770      H1782   1.111       .  S
C1770      H1783   1.109       .  S
C1772      C1773   1.409       .  A
C1772      C1777   1.505       .  S
C1773      C1774   1.410       .  A
C1773      H1778   1.084       .  S
C1774      C1775   1.423       .  A
C1775      C1776   1.402       .  A
C1775      C1779   1.509       .  S
C1776      H1780   1.085       .  S
C1777      H1787   1.111       .  S
C1777      H1788   1.110       .  S
C1777      H1789   1.109       .  S
C1779      H1790   1.110       .  S
C1779      H1791   1.110       .  S
C1779      H1792   1.111       .  S
C1793      C1794   1.399       .  A
C1793      C1798   1.403       .  A
C1793      H1803   1.085       .  S
C1794      C1799   1.484       .  S
C1794      C1795   1.412       .  A
C1795      C1796   1.405       .  A
C1795      C1800   1.507       .  S
C1796      C1797   1.405       .  A
C1796      H1801   1.084       .  S
C1797      C1798   1.423       .  A
C1798      C1802   1.511       .  S
C1799      C1804   1.412       .  A
C1799      C1808   1.399       .  A
C1800      H1816   1.109       .  S
C1800      H1817   1.110       .  S
C1800      H1818   1.111       .  S
C1802      H1813   1.110       .  S
C1802      H1814   1.111       .  S
C1802      H1815   1.102       .  S
C1804      C1805   1.409       .  A
C1804      C1809   1.505       .  S
C1805      C1806   1.406   1_545  A
C1805      H1810   1.084   1_545  S
C1806      C1807   1.419   1_565  A
C1807      C1808   1.400       .  A
C1807      C1811   1.510   1_545  S
C1808      H1812   1.085       .  S
C1809      H1819   1.111       .  S
C1809      H1820   1.110       .  S
C1809      H1821   1.110       .  S
C1811      H1822   1.111   1_565  S
C1811      H1823   1.111       .  S
C1811      H1824   1.109       .  S
C1825      C1826   1.400       .  A
C1825      C1830   1.402       .  A
C1825      H1835   1.085       .  S
C1826      C1831   1.482       .  S
C1826      C1827   1.411       .  A
C1827      C1828   1.405       .  A
C1827      C1832   1.506       .  S
C1828      C1829   1.404       .  A
C1828      H1833   1.084       .  S
C1829      C1830   1.417       .  A
C1830      C1834   1.508   1_455  S
C1831      C1836   1.411       .  A
C1831      C1840   1.403       .  A
C1832      H1848   1.110       .  S
C1832      H1849   1.110       .  S
C1832      H1850   1.111       .  S
C1834      H1845   1.110       .  S
C1834      H1846   1.111       .  S
C1834      H1847   1.108       .  S
C1836      C1837   1.400       .  A
C1836      C1841   1.508       .  S
C1837      C1838   1.403       .  A
C1837      H1842   1.084       .  S
C1838      C1839   1.417       .  A
C1839      C1840   1.407       .  A
C1839      C1843   1.508       .  S
C1840      H1844   1.084       .  S
C1841      H1851   1.111       .  S
C1841      H1852   1.110       .  S
C1841      H1853   1.110       .  S
C1843      H1854   1.111       .  S
C1843      H1855   1.108       .  S
C1843      H1856   1.110       .  S
C1857      C1858   1.401       .  A
C1857      C1862   1.400       .  A
C1857      H1867   1.084       .  S
C1858      C1863   1.478       .  S
C1858      C1859   1.409       .  A
C1859      C1860   1.403       .  A
C1859      C1864   1.506       .  S
C1860      C1861   1.407       .  A
C1860      H1865   1.084       .  S
C1861      C1862   1.418       .  A
C1862      C1866   1.509       .  S
C1863      C1868   1.410       .  A
C1863      C1872   1.402       .  A
C1864      H1880   1.109       .  S
C1864      H1881   1.110       .  S
C1864      H1882   1.111       .  S
C1866      H1877   1.110       .  S
C1866      H1878   1.111       .  S
C1866      H1879   1.110       .  S
C1868      C1869   1.401   1_545  A
C1868      C1873   1.507       .  S
C1869      C1870   1.403       .  A
C1869      H1874   1.084       .  S
C1870      C1871   1.416   1_565  A
C1871      C1872   1.401       .  A
C1871      C1875   1.509       .  S
C1872      H1876   1.085       .  S
C1873      H1883   1.111   1_545  S
C1873      H1884   1.109       .  S
C1873      H1885   1.110       .  S
C1875      H1886   1.111       .  S
C1875      H1887   1.106   1_545  S
C1875      H1888   1.110       .  S
C1889      C1890   1.400       .  A
C1889      C1894   1.403       .  A
C1889      H1899   1.084       .  S
C1890      C1895   1.476       .  S
C1890      C1891   1.409       .  A
C1891      C1892   1.402       .  A
C1891      C1896   1.506       .  S
C1892      C1893   1.405       .  A
C1892      H1897   1.084       .  S
C1893      C1894   1.418       .  A
C1894      C1898   1.509       .  S
C1895      C1900   1.408       .  A
C1895      C1904   1.399       .  A
C1896      H1912   1.110       .  S
C1896      H1913   1.110       .  S
C1896      H1914   1.111       .  S
C1898      H1909   1.111       .  S
C1898      H1910   1.111       .  S
C1898      H1911   1.109       .  S
C1900      C1901   1.401       .  A
C1900      C1905   1.506       .  S
C1901      C1902   1.406       .  A
C1901      H1906   1.084       .  S
C1902      C1903   1.419       .  A
C1903      C1904   1.403       .  A
C1903      C1907   1.509       .  S
C1904      H1908   1.084       .  S
C1905      H1915   1.111       .  S
C1905      H1916   1.110       .  S
C1905      H1917   1.110       .  S
C1907      H1918   1.109       .  S
C1907      H1919   1.111       .  S
C1907      H1920   1.111       .  S
C1921      C1922   1.402       .  A
C1921      C1926   1.406       .  A
C1921      H1931   1.084   1_455  S
C1922      C1927   1.484       .  S
C1922      C1923   1.411       .  A
C1923      C1924   1.400       .  A
C1923      C1928   1.509       .  S
C1924      C1925   1.408       .  A
C1924      H1929   1.084       .  S
C1925      C1926   1.420       .  A
C1926      C1930   1.507       .  S
C1927      C1932   1.411   1_455  A
C1927      C1936   1.402       .  A
C1928      H1944   1.109       .  S
C1928      H1945   1.110       .  S
C1928      H1946   1.111       .  S
C1930      H1941   1.110       .  S
C1930      H1942   1.111   1_455  S
C1930      H1943   1.110       .  S
C1932      C1933   1.399       .  A
C1932      C1937   1.510       .  S
C1933      C1934   1.408       .  A
C1933      H1938   1.084       .  S
C1934      C1935   1.420       .  A
C1935      C1936   1.407   1_655  A
C1935      C1939   1.507   1_655  S
C1936      H1940   1.084       .  S
C1937      H1947   1.111       .  S
C1937      H1948   1.109       .  S
C1937      H1949   1.111       .  S
C1939      H1950   1.111       .  S
C1939      H1951   1.110   1_455  S
C1939      H1952   1.111       .  S
C1953      C1954   1.400       .  A
C1953      C1958   1.397       .  A
C1953      H1963   1.085       .  S
C1954      C1959   1.474       .  S
C1954      C1955   1.410       .  A
C1955      C1956   1.404       .  A
C1955      C1960   1.505       .  S
C1956      C1957   1.404       .  A
C1956      H1961   1.084       .  S
C1957      C1958   1.413       .  A
C1958      C1962   1.509       .  S
C1959      C1964   1.410       .  A
C1959      C1968   1.401       .  A
C1960      H1976   1.110       .  S
C1960      H1977   1.110       .  S
C1960      H1978   1.111       .  S
C1962      H1973   1.111       .  S
C1962      H1974   1.110       .  S
C1962      H1975   1.108       .  S
C1964      C1965   1.402       .  A
C1964      C1969   1.505       .  S
C1965      C1966   1.401       .  A
C1965      H1970   1.084       .  S
C1966      C1967   1.413       .  A
C1967      C1968   1.399       .  A
C1967      C1971   1.509       .  S
C1968      H1972   1.085       .  S
C1969      H1979   1.111       .  S
C1969      H1980   1.110       .  S
C1969      H1981   1.110       .  S
C1971      H1982   1.110       .  S
C1971      H1983   1.109       .  S
C1971      H1984   1.111       .  S
C1985      C1986   1.401       .  A
C1985      C1990   1.402       .  A
C1985      H1995   1.084       .  S
C1986      C1991   1.487       .  S
C1986      C1987   1.414       .  A
C1987      C1988   1.410       .  A
C1987      C1992   1.506       .  S
C1988      C1989   1.405       .  A
C1988      H1993   1.084       .  S
C1989      C1990   1.416       .  A
C1990      C1994   1.509       .  S
C1991      C1996   1.413       .  A
C1991      C2000   1.400       .  A
C1992      H2008   1.109       .  S
C1992      H2009   1.110       .  S
C1992      H2010   1.111       .  S
C1994      H2005   1.111       .  S
C1994      H2006   1.111       .  S
C1994      H2007   1.109       .  S
C1996      C1997   1.408       .  A
C1996      C2001   1.506       .  S
C1997      C1998   1.406       .  A
C1997      H2002   1.084       .  S
C1998      C1999   1.419       .  A
C1999      C2000   1.402       .  A
C1999      C2003   1.508       .  S
C2000      H2004   1.085       .  S
C2001      H2011   1.111       .  S
C2001      H2012   1.109       .  S
C2001      H2013   1.110       .  S
C2003      H2014   1.110       .  S
C2003      H2015   1.108       .  S
C2003      H2016   1.111       .  S
C2017      C2018   1.402       .  A
C2017      C2022   1.408       .  A
C2017      H2027   1.084       .  S
C2018      C2023   1.483       .  S
C2018      C2019   1.409       .  A
C2019      C2020   1.401       .  A
C2019      C2024   1.508       .  S
C2020      C2021   1.407       .  A
C2020      H2025   1.084       .  S
C2021      C2022   1.421       .  A
C2022      C2026   1.508       .  S
C2023      C2028   1.411       .  A
C2023      C2032   1.400       .  A
C2024      H2040   1.110       .  S
C2024      H2041   1.109       .  S
C2024      H2042   1.111       .  S
C2026      H2037   1.110       .  S
C2026      H2038   1.111       .  S
C2026      H2039   1.103       .  S
C2028      C2029   1.409       .  A
C2028      C2033   1.505       .  S
C2029      C2030   1.405       .  A
C2029      H2034   1.084       .  S
C2030      C2031   1.417       .  A
C2031      C2032   1.400       .  A
C2031      C2035   1.509       .  S
C2032      H2036   1.085       .  S
C2033      H2043   1.111       .  S
C2033      H2044   1.110       .  S
C2033      H2045   1.110       .  S
C2035      H2046   1.111       .  S
C2035      H2047   1.107       .  S
C2035      H2048   1.110       .  S
C2049      C2050   1.399       .  A
C2049      C2054   1.400       .  A
C2049      H2059   1.085       .  S
C2050      C2055   1.473       .  S
C2050      C2051   1.409       .  A
C2051      C2052   1.401       .  A
C2051      C2056   1.506       .  S
C2052      C2053   1.404       .  A
C2052      H2057   1.084       .  S
C2053      C2054   1.418       .  A
C2054      C2058   1.510       .  S
C2055      C2060   1.408       .  A
C2055      C2064   1.399       .  A
C2056      H2072   1.110       .  S
C2056      H2073   1.110       .  S
C2056      H2074   1.111       .  S
C2058      H2069   1.111       .  S
C2058      H2070   1.110       .  S
C2058      H2071   1.106       .  S
C2060      C2061   1.400       .  A
C2060      C2065   1.507       .  S
C2061      C2062   1.406       .  A
C2061      H2066   1.084       .  S
C2062      C2063   1.419       .  A
C2063      C2064   1.402       .  A
C2063      C2067   1.509       .  S
C2064      H2068   1.085       .  S
C2065      H2075   1.111       .  S
C2065      H2076   1.110       .  S
C2065      H2077   1.110       .  S
C2067      H2078   1.110       .  S
C2067      H2079   1.106       .  S
C2067      H2080   1.111       .  S
C2081      C2082   1.403       .  A
C2081      C2086   1.407       .  A
C2081      H2091   1.084       .  S
C2082      C2087   1.481       .  S
C2082      C2083   1.410       .  A
C2083      C2084   1.400       .  A
C2083      C2088   1.508       .  S
C2084      C2085   1.404       .  A
C2084      H2089   1.085       .  S
C2085      C2086   1.418       .  A
C2086      C2090   1.508       .  S
C2087      C2092   1.410       .  A
C2087      C2096   1.398       .  A
C2088      H2104   1.110       .  S
C2088      H2105   1.109       .  S
C2088      H2106   1.111       .  S
C2090      H2101   1.110       .  S
C2090      H2102   1.111       .  S
C2090      H2103   1.106       .  S
C2092      C2093   1.408       .  A
C2092      C2097   1.505       .  S
C2093      C2094   1.407       .  A
C2093      H2098   1.084       .  S
C2094      C2095   1.420       .  A
C2095      C2096   1.400       .  A
C2095      C2099   1.508       .  S
C2096      H2100   1.085       .  S
C2097      H2107   1.111       .  S
C2097      H2108   1.110       .  S
C2097      H2109   1.109       .  S
C2099      H2110   1.111       .  S
C2099      H2111   1.105       .  S
C2099      H2112   1.110       .  S
C2113      C2114   1.401       .  A
C2113      C2118   1.406       .  A
C2113      H2123   1.084       .  S
C2114      C2119   1.479       .  S
C2114      C2115   1.409       .  A
C2115      C2116   1.399       .  A
C2115      C2120   1.508       .  S
C2116      C2117   1.405       .  A
C2116      H2121   1.084       .  S
C2117      C2118   1.419       .  A
C2118      C2122   1.508       .  S
C2119      C2124   1.409       .  A
C2119      C2128   1.400       .  A
C2120      H2136   1.110       .  S
C2120      H2137   1.110       .  S
C2120      H2138   1.111       .  S
C2122      H2133   1.110       .  S
C2122      H2134   1.111       .  S
C2122      H2135   1.106       .  S
C2124      C2125   1.404       .  A
C2124      C2129   1.506       .  S
C2125      C2126   1.406       .  A
C2125      H2130   1.084       .  S
C2126      C2127   1.415       .  A
C2127      C2128   1.401       .  A
C2127      C2131   1.503       .  S
C2128      H2132   1.085       .  S
C2129      H2139   1.111       .  S
C2129      H2140   1.110       .  S
C2129      H2141   1.110       .  S
C2131      H2142   1.111       .  S
C2131      H2143   1.105       .  S
C2131      H2144   1.110       .  S
C2145      C2146   1.400       .  A
C2145      C2150   1.401       .  A
C2145      H2155   1.085       .  S
C2146      C2151   1.481       .  S
C2146      C2147   1.410       .  A
C2147      C2148   1.406       .  A
C2147      C2152   1.506       .  S
C2148      C2149   1.407       .  A
C2148      H2153   1.084       .  S
C2149      C2150   1.417       .  A
C2150      C2154   1.508       .  S
C2151      C2156   1.410       .  A
C2151      C2160   1.404       .  A
C2152      H2168   1.110       .  S
C2152      H2169   1.109       .  S
C2152      H2170   1.111       .  S
C2154      H2165   1.110       .  S
C2154      H2166   1.111       .  S
C2154      H2167   1.108       .  S
C2156      C2157   1.398       .  A
C2156      C2161   1.509       .  S
C2157      C2158   1.404       .  A
C2157      H2162   1.085       .  S
C2158      C2159   1.418       .  A
C2159      C2160   1.409       .  A
C2159      C2163   1.507       .  S
C2160      H2164   1.084       .  S
C2161      H2171   1.111       .  S
C2161      H2172   1.110       .  S
C2161      H2173   1.109       .  S
C2163      H2174   1.111       .  S
C2163      H2175   1.106       .  S
C2163      H2176   1.110       .  S
C2177      C2178   1.399       .  A
C2177      C2182   1.401       .  A
C2177      H2187   1.085       .  S
C2178      C2183   1.482       .  S
C2178      C2179   1.410       .  A
C2179      C2180   1.407       .  A
C2179      C2184   1.505       .  S
C2180      C2181   1.407       .  A
C2180      H2185   1.084       .  S
C2181      C2182   1.420       .  A
C2182      C2186   1.509       .  S
C2183      C2188   1.407       .  A
C2183      C2192   1.398       .  A
C2184      H2200   1.110       .  S
C2184      H2201   1.110       .  S
C2184      H2202   1.111       .  S
C2186      H2197   1.110       .  S
C2186      H2198   1.111       .  S
C2186      H2199   1.102       .  S
C2188      C2189   1.406       .  A
C2188      C2193   1.505       .  S
C2189      C2190   1.412       .  A
C2189      H2194   1.084       .  S
C2190      C2191   1.425       .  A
C2191      C2192   1.404       .  A
C2191      C2195   1.509       .  S
C2192      H2196   1.085       .  S
C2193      H2203   1.111       .  S
C2193      H2204   1.110       .  S
C2193      H2205   1.110       .  S
C2195      H2206   1.111       .  S
C2195      H2207   1.110       .  S
C2195      H2208   1.110       .  S
C2209      C2210   1.399       .  A
C2209      C2214   1.401       .  A
C2209      H2219   1.085       .  S
C2210      C2215   1.475       .  S
C2210      C2211   1.408       .  A
C2211      C2212   1.401       .  A
C2211      C2216   1.506       .  S
C2212      C2213   1.406       .  A
C2212      H2217   1.084       .  S
C2213      C2214   1.419       .  A
C2214      C2218   1.509       .  S
C2215      C2220   1.408       .  A
C2215      C2224   1.397       .  A
C2216      H2232   1.110       .  S
C2216      H2233   1.110       .  S
C2216      H2234   1.111       .  S
C2218      H2229   1.110       .  S
C2218      H2230   1.111       .  S
C2218      H2231   1.107       .  S
C2220      C2221   1.402       .  A
C2220      C2225   1.507       .  S
C2221      C2222   1.407       .  A
C2221      H2226   1.084       .  S
C2222      C2223   1.421       .  A
C2223      C2224   1.402       .  A
C2223      C2227   1.509       .  S
C2224      H2228   1.084       .  S
C2225      H2235   1.111       .  S
C2225      H2236   1.110       .  S
C2225      H2237   1.110       .  S
C2227      H2238   1.111       .  S
C2227      H2239   1.111       .  S
C2227      H2240   1.110       .  S
C2241      C2242   1.398       .  A
C2241      C2246   1.398       .  A
C2241      H2251   1.085       .  S
C2242      C2247   1.481       .  S
C2242      C2243   1.412       .  A
C2243      C2244   1.409       .  A
C2243      C2248   1.505       .  S
C2244      C2245   1.405       .  A
C2244      H2249   1.084       .  S
C2245      C2246   1.418       .  A
C2246      C2250   1.509       .  S
C2247      C2252   1.411       .  A
C2247      C2256   1.402       .  A
C2248      H2264   1.110       .  S
C2248      H2265   1.109       .  S
C2248      H2266   1.111       .  S
C2250      H2261   1.110       .  S
C2250      H2262   1.111       .  S
C2250      H2263   1.106       .  S
C2252      C2253   1.400       .  A
C2252      C2257   1.509       .  S
C2253      C2254   1.404       .  A
C2253      H2258   1.084       .  S
C2254      C2255   1.420       .  A
C2255      C2256   1.407       .  A
C2255      C2259   1.509       .  S
C2256      H2260   1.084       .  S
C2257      H2267   1.111       .  S
C2257      H2268   1.110       .  S
C2257      H2269   1.109       .  S
C2259      H2270   1.111       .  S
C2259      H2271   1.105       .  S
C2259      H2272   1.110       .  S
C2273      C2274   1.402       .  A
C2273      C2278   1.407       .  A
C2273      H2283   1.084       .  S
C2274      C2279   1.483       .  S
C2274      C2275   1.409       .  A
C2275      C2276   1.402       .  A
C2275      C2280   1.507       .  S
C2276      C2277   1.407       .  A
C2276      H2281   1.084       .  S
C2277      C2278   1.418       .  A
C2278      C2282   1.508       .  S
C2279      C2284   1.410       .  A
C2279      C2288   1.402       .  A
C2280      H2296   1.110       .  S
C2280      H2297   1.110       .  S
C2280      H2298   1.111       .  S
C2282      H2293   1.109       .  S
C2282      H2294   1.111       .  S
C2282      H2295   1.111       .  S
C2284      C2285   1.400       .  A
C2284      C2289   1.508       .  S
C2285      C2286   1.406       .  A
C2285      H2290   1.084       .  S
C2286      C2287   1.421       .  A
C2287      C2288   1.408       .  A
C2287      C2291   1.508       .  S
C2288      H2292   1.084       .  S
C2289      H2299   1.111       .  S
C2289      H2300   1.110       .  S
C2289      H2301   1.110       .  S
C2291      H2302   1.111       .  S
C2291      H2303   1.106       .  S
C2291      H2304   1.110       .  S
C2305      C2306   1.401       .  A
C2305      C2310   1.408       .  A
C2305      H2315   1.085       .  S
C2306      C2311   1.482       .  S
C2306      C2307   1.410       .  A
C2307      C2308   1.401       .  A
C2307      C2312   1.509       .  S
C2308      C2309   1.407       .  A
C2308      H2313   1.084       .  S
C2309      C2310   1.421       .  A
C2310      C2314   1.508       .  S
C2311      C2316   1.412       .  A
C2311      C2320   1.400       .  A
C2312      H2328   1.110       .  S
C2312      H2329   1.109       .  S
C2312      H2330   1.111       .  S
C2314      H2325   1.110       .  S
C2314      H2326   1.111       .  S
C2314      H2327   1.104       .  S
C2316      C2317   1.409       .  A
C2316      C2321   1.505       .  S
C2317      C2318   1.404       .  A
C2317      H2322   1.084       .  S
C2318      C2319   1.415       .  A
C2319      C2320   1.399       .  A
C2319      C2323   1.509       .  S
C2320      H2324   1.085       .  S
C2321      H2331   1.111       .  S
C2321      H2332   1.110       .  S
C2321      H2333   1.109       .  S
C2323      H2334   1.111       .  S
C2323      H2335   1.108       .  S
C2323      H2336   1.110       .  S
C2337      C2338   1.401       .  A
C2337      C2342   1.399       .  A
C2337      H2347   1.085       .  S
C2338      C2343   1.487       .  S
C2338      C2339   1.413       .  A
C2339      C2340   1.412       .  A
C2339      C2344   1.505       .  S
C2340      C2341   1.405       .  A
C2340      H2345   1.084       .  S
C2341      C2342   1.414       .  A
C2342      C2346   1.509       .  S
C2343      C2348   1.410       .  A
C2343      C2352   1.401       .  A
C2344      H2360   1.110       .  S
C2344      H2361   1.110       .  S
C2344      H2362   1.111       .  S
C2346      H2357   1.110       .  S
C2346      H2358   1.110       .  S
C2346      H2359   1.107       .  S
C2348      C2349   1.405       .  A
C2348      C2353   1.507       .  S
C2349      C2350   1.409       .  A
C2349      H2354   1.083       .  S
C2350      C2351   1.422       .  A
C2351      C2352   1.408       .  A
C2351      C2355   1.508       .  S
C2352      H2356   1.084       .  S
C2353      H2363   1.111       .  S
C2353      H2364   1.109       .  S
C2353      H2365   1.110       .  S
C2355      H2366   1.111       .  S
C2355      H2367   1.109       .  S
C2355      H2368   1.111       .  S
C2369      C2370   1.397       .  A
C2369      C2374   1.401       .  A
C2369      H2379   1.084       .  S
C2370      C2375   1.471       .  S
C2370      C2371   1.408       .  A
C2371      C2372   1.400       .  A
C2371      C2376   1.507       .  S
C2372      C2373   1.406       .  A
C2372      H2377   1.084       .  S
C2373      C2374   1.421       .  A
C2374      C2378   1.509       .  S
C2375      C2380   1.410       .  A
C2375      C2384   1.399       .  A
C2376      H2392   1.110       .  S
C2376      H2393   1.109       .  S
C2376      H2394   1.111       .  S
C2378      H2389   1.111       .  S
C2378      H2390   1.111       .  S
C2378      H2391   1.109       .  S
C2380      C2381   1.401       .  A
C2380      C2385   1.507       .  S
C2381      C2382   1.402       .  A
C2381      H2386   1.083       .  S
C2382      C2383   1.414       .  A
C2383      C2384   1.399       .  A
C2383      C2387   1.508       .  S
C2384      H2388   1.084       .  S
C2385      H2395   1.111       .  S
C2385      H2396   1.110       .  S
C2385      H2397   1.109       .  S
C2387      H2398   1.110       .  S
C2387      H2399   1.108       .  S
C2387      H2400   1.109       .  S
C2401      C2402   1.399       .  A
C2401      C2406   1.400       .  A
C2401      H2411   1.085       .  S
C2402      C2407   1.483       .  S
C2402      C2403   1.412       .  A
C2403      C2404   1.409       .  A
C2403      C2408   1.505       .  S
C2404      C2405   1.405       .  A
C2404      H2409   1.084       .  S
C2405      C2406   1.419       .  A
C2406      C2410   1.510       .  S
C2407      C2412   1.410       .  A
C2407      C2416   1.402       .  A
C2408      H2424   1.110       .  S
C2408      H2425   1.109       .  S
C2408      H2426   1.111       .  S
C2410      H2421   1.110       .  S
C2410      H2422   1.111       .  S
C2410      H2423   1.106       .  S
C2412      C2413   1.401       .  A
C2412      C2417   1.508       .  S
C2413      C2414   1.406       .  A
C2413      H2418   1.084       .  S
C2414      C2415   1.420       .  A
C2415      C2416   1.408       .  A
C2415      C2419   1.508       .  S
C2416      H2420   1.084       .  S
C2417      H2427   1.111       .  S
C2417      H2428   1.110       .  S
C2417      H2429   1.109       .  S
C2419      H2430   1.111       .  S
C2419      H2431   1.105       .  S
C2419      H2432   1.110       .  S
C2433      C2434   1.400       .  A
C2433      C2438   1.406       .  A
C2433      H2443   1.084       .  S
C2434      C2439   1.476       .  S
C2434      C2435   1.410       .  A
C2435      C2436   1.398       .  A
C2435      C2440   1.508       .  S
C2436      C2437   1.404       .  A
C2436      H2441   1.084       .  S
C2437      C2438   1.419       .  A
C2438      C2442   1.507       .  S
C2439      C2444   1.409       .  A
C2439      C2448   1.400       .  A
C2440      H2456   1.110       .  S
C2440      H2457   1.110       .  S
C2440      H2458   1.111       .  S
C2442      H2453   1.109       .  S
C2442      H2454   1.111       .  S
C2442      H2455   1.109       .  S
C2444      C2445   1.402       .  A
C2444      C2449   1.506       .  S
C2445      C2446   1.404       .  A
C2445      H2450   1.084       .  S
C2446      C2447   1.417       .  A
C2447      C2448   1.401       .  A
C2447      C2451   1.510       .  S
C2448      H2452   1.085       .  S
C2449      H2459   1.111       .  S
C2449      H2460   1.110       .  S
C2449      H2461   1.110       .  S
C2451      H2462   1.110       .  S
C2451      H2463   1.106       .  S
C2451      H2464   1.111       .  S
C2465      C2466   1.399       .  A
C2465      C2470   1.405       .  A
C2465      H2475   1.084       .  S
C2466      C2471   1.478       .  S
C2466      C2467   1.410       .  A
C2467      C2468   1.401       .  A
C2467      C2472   1.507       .  S
C2468      C2469   1.405       .  A
C2468      H2473   1.084       .  S
C2469      C2470   1.419       .  A
C2470      C2474   1.503       .  S
C2471      C2476   1.408       .  A
C2471      C2480   1.399       .  A
C2472      H2488   1.110       .  S
C2472      H2489   1.109       .  S
C2472      H2490   1.111       .  S
C2474      H2485   1.111       .  S
C2474      H2486   1.111       .  S
C2474      H2487   1.106       .  S
C2476      C2477   1.405       .  A
C2476      C2481   1.505       .  S
C2477      C2478   1.407       .  A
C2477      H2482   1.084       .  S
C2478      C2479   1.420       .  A
C2479      C2480   1.400       .  A
C2479      C2483   1.511       .  S
C2480      H2484   1.085       .  S
C2481      H2491   1.111       .  S
C2481      H2492   1.110       .  S
C2481      H2493   1.110       .  S
C2483      H2494   1.110       .  S
C2483      H2495   1.104       .  S
C2483      H2496   1.111       .  S
C2497      C2498   1.400       .  A
C2497      C2502   1.400       .  A
C2497      H2507   1.084       .  S
C2498      C2503   1.480       .  S
C2498      C2499   1.412       .  A
C2499      C2500   1.407       .  A
C2499      C2504   1.506       .  S
C2500      C2501   1.405       .  A
C2500      H2505   1.084       .  S
C2501      C2502   1.416       .  A
C2502      C2506   1.509       .  S
C2503      C2508   1.412       .  A
C2503      C2512   1.399       .  A
C2504      H2520   1.109       .  S
C2504      H2521   1.110       .  S
C2504      H2522   1.111       .  S
C2506      H2517   1.111       .  S
C2506      H2518   1.111       .  S
C2506      H2519   1.109       .  S
C2508      C2509   1.406       .  A
C2508      C2513   1.506       .  S
C2509      C2510   1.405       .  A
C2509      H2514   1.084       .  S
C2510      C2511   1.417       .  A
C2511      C2512   1.399       .  A
C2511      C2515   1.507       .  S
C2512      H2516   1.085       .  S
C2513      H2523   1.111       .  S
C2513      H2524   1.109       .  S
C2513      H2525   1.110       .  S
C2515      H2526   1.110       .  S
C2515      H2527   1.107       .  S
C2515      H2528   1.111       .  S
C2529      C2530   1.402       .  A
C2529      C2534   1.405       .  A
C2529      H2539   1.085       .  S
C2530      C2535   1.482       .  S
C2530      C2531   1.409       .  A
C2531      C2532   1.402       .  A
C2531      C2536   1.506       .  S
C2532      C2533   1.405       .  A
C2532      H2537   1.084       .  S
C2533      C2534   1.420       .  A
C2534      C2538   1.509       .  S
C2535      C2540   1.410       .  A
C2535      C2544   1.399       .  A
C2536      H2552   1.110       .  S
C2536      H2553   1.110       .  S
C2536      H2554   1.111       .  S
C2538      H2549   1.110       .  S
C2538      H2550   1.111       .  S
C2538      H2551   1.104       .  S
C2540      C2541   1.408       .  A
C2540      C2545   1.505       .  S
C2541      C2542   1.408       .  A
C2541      H2546   1.084       .  S
C2542      C2543   1.420       .  A
C2543      C2544   1.400       .  A
C2543      C2547   1.511       .  S
C2544      H2548   1.085       .  S
C2545      H2555   1.111       .  S
C2545      H2556   1.110       .  S
C2545      H2557   1.110       .  S
C2547      H2558   1.111       .  S
C2547      H2559   1.104       .  S
C2547      H2560   1.110       .  S
C2561      C2562   1.403       .  A
C2561      C2566   1.407       .  A
C2561      H2571   1.084       .  S
C2562      C2567   1.482       .  S
C2562      C2563   1.410       .  A
C2563      C2564   1.401       .  A
C2563      C2568   1.508       .  S
C2564      C2565   1.405       .  A
C2564      H2569   1.084       .  S
C2565      C2566   1.418       .  A
C2566      C2570   1.507       .  S
C2567      C2572   1.411       .  A
C2567      C2576   1.401       .  A
C2568      H2584   1.110       .  S
C2568      H2585   1.110       .  S
C2568      H2586   1.111       .  S
C2570      H2581   1.110       .  S
C2570      H2582   1.111       .  S
C2570      H2583   1.108       .  S
C2572      C2573   1.404       .  A
C2572      C2577   1.507       .  S
C2573      C2574   1.405       .  A
C2573      H2578   1.084       .  S
C2574      C2575   1.418       .  A
C2575      C2576   1.404       .  A
C2575      C2579   1.508       .  S
C2576      H2580   1.084       .  S
C2577      H2587   1.111       .  S
C2577      H2588   1.110       .  S
C2577      H2589   1.110       .  S
C2579      H2590   1.111       .  S
C2579      H2591   1.108       .  S
C2579      H2592   1.110       .  S
C2593      C2594   1.400       .  A
C2593      C2598   1.404       .  A
C2593      H2603   1.084       .  S
C2594      C2599   1.481       .  S
C2594      C2595   1.408       .  A
C2595      C2596   1.404       .  A
C2595      C2600   1.506       .  S
C2596      C2597   1.409       .  A
C2596      H2601   1.084       .  S
C2597      C2598   1.420       .  A
C2598      C2602   1.508       .  S
C2599      C2604   1.410       .  A
C2599      C2608   1.401       .  A
C2600      H2616   1.110       .  S
C2600      H2617   1.110       .  S
C2600      H2618   1.111       .  S
C2602      H2613   1.110       .  S
C2602      H2614   1.111       .  S
C2602      H2615   1.110       .  S
C2604      C2605   1.403       .  A
C2604      C2609   1.507       .  S
C2605      C2606   1.405       .  A
C2605      H2610   1.085       .  S
C2606      C2607   1.418       .  A
C2607      C2608   1.404       .  A
C2607      C2611   1.509       .  S
C2608      H2612   1.085       .  S
C2609      H2619   1.111       .  S
C2609      H2620   1.110       .  S
C2609      H2621   1.110       .  S
C2611      H2622   1.111       .  S
C2611      H2623   1.105       .  S
C2611      H2624   1.110       .  S
C2625      C2626   1.398       .  A
C2625      C2630   1.398       .  A
C2625      H2635   1.085       .  S
C2626      C2631   1.480       .  S
C2626      C2627   1.411       .  A
C2627      C2628   1.409       .  A
C2627      C2632   1.504       .  S
C2628      C2629   1.405       .  A
C2628      H2633   1.084       .  S
C2629      C2630   1.417       .  A
C2630      C2634   1.509       .  S
C2631      C2636   1.410       .  A
C2631      C2640   1.401       .  A
C2632      H2648   1.110       .  S
C2632      H2649   1.110       .  S
C2632      H2650   1.111       .  S
C2634      H2645   1.110       .  S
C2634      H2646   1.111       .  S
C2634      H2647   1.106       .  S
C2636      C2637   1.400       .  A
C2636      C2641   1.507       .  S
C2637      C2638   1.403       .  A
C2637      H2642   1.085       .  S
C2638      C2639   1.419       .  A
C2639      C2640   1.406       .  A
C2639      C2643   1.507       .  S
C2640      H2644   1.084       .  S
C2641      H2651   1.111       .  S
C2641      H2652   1.110       .  S
C2641      H2653   1.110       .  S
C2643      H2654   1.111       .  S
C2643      H2655   1.105       .  S
C2643      H2656   1.110       .  S
C2657      C2658   1.400       .  A
C2657      C2662   1.403       .  A
C2657      H2667   1.084       .  S
C2658      C2663   1.479       .  S
C2658      C2659   1.408       .  A
C2659      C2660   1.403       .  A
C2659      C2664   1.507       .  S
C2660      C2661   1.410       .  A
C2660      H2665   1.084       .  S
C2661      C2662   1.421       .  A
C2662      C2666   1.510       .  S
C2663      C2668   1.411       .  A
C2663      C2672   1.401       .  A
C2664      H2680   1.110       .  S
C2664      H2681   1.108       .  S
C2664      H2682   1.111       .  S
C2666      H2677   1.109       .  S
C2666      H2678   1.111       .  S
C2666      H2679   1.111       .  S
C2668      C2669   1.398       .  A
C2668      C2673   1.511       .  S
C2669      C2670   1.406       .  A
C2669      H2674   1.084       .  S
C2670      C2671   1.421       .  A
C2671      C2672   1.407       .  A
C2671      C2675   1.508       .  S
C2672      H2676   1.084       .  S
C2673      H2683   1.111       .  S
C2673      H2684   1.110       .  S
C2673      H2685   1.107       .  S
C2675      H2686   1.111       .  S
C2675      H2687   1.103       .  S
C2675      H2688   1.110       .  S
C2689      C2690   1.398       .  A
C2689      C2694   1.397       .  A
C2689      H2699   1.085       .  S
C2690      C2695   1.472       .  S
C2690      C2691   1.407       .  A
C2691      C2692   1.405       .  A
C2691      C2696   1.505       .  S
C2692      C2693   1.407       .  A
C2692      H2697   1.083       .  S
C2693      C2694   1.418       .  A
C2694      C2698   1.510       .  S
C2695      C2700   1.411       .  A
C2695      C2704   1.399       .  A
C2696      H2712   1.110       .  S
C2696      H2713   1.110       .  S
C2696      H2714   1.111       .  S
C2698      H2709   1.109       .  S
C2698      H2710   1.111       .  S
C2698      H2711   1.111       .  S
C2700      C2701   1.402       .  A
C2700      C2705   1.507       .  S
C2701      C2702   1.403       .  A
C2701      H2706   1.084       .  S
C2702      C2703   1.414       .  A
C2703      C2704   1.398       .  A
C2703      C2707   1.508       .  S
C2704      H2708   1.085       .  S
C2705      H2715   1.111       .  S
C2705      H2716   1.110       .  S
C2705      H2717   1.110       .  S
C2707      H2718   1.110       .  S
C2707      H2719   1.109       .  S
C2707      H2720   1.110       .  S
C2721      C2722   1.401       .  A
C2721      C2726   1.407       .  A
C2721      H2731   1.084       .  S
C2722      C2727   1.482       .  S
C2722      C2723   1.410       .  A
C2723      C2724   1.401       .  A
C2723      C2728   1.508       .  S
C2724      C2725   1.405       .  A
C2724      H2729   1.084       .  S
C2725      C2726   1.420       .  A
C2726      C2730   1.508       .  S
C2727      C2732   1.412       .  A
C2727      C2736   1.399       .  A
C2728      H2744   1.110       .  S
C2728      H2745   1.109       .  S
C2728      H2746   1.111       .  S
C2730      H2741   1.110       .  S
C2730      H2742   1.111       .  S
C2730      H2743   1.105       .  S
C2732      C2733   1.409       .  A
C2732      C2737   1.505       .  S
C2733      C2734   1.404       .  A
C2733      H2738   1.084       .  S
C2734      C2735   1.416       .  A
C2735      C2736   1.398       .  A
C2735      C2739   1.510       .  S
C2736      H2740   1.085       .  S
C2737      H2747   1.111       .  S
C2737      H2748   1.110       .  S
C2737      H2749   1.109       .  S
C2739      H2750   1.110       .  S
C2739      H2751   1.108       .  S
C2739      H2752   1.110       .  S
C2753      C2754   1.401       .  A
C2753      C2758   1.400       .  A
C2753      H2763   1.085       .  S
C2754      C2759   1.473   1_556  S
C2754      C2755   1.409       .  A
C2755      C2756   1.399       .  A
C2755      C2760   1.507       .  S
C2756      C2757   1.402       .  A
C2756      H2761   1.083       .  S
C2757      C2758   1.414       .  A
C2758      C2762   1.508       .  S
C2759      C2764   1.406       .  A
C2759      C2768   1.397       .  A
C2760      H2776   1.110       .  S
C2760      H2777   1.110       .  S
C2760      H2778   1.111       .  S
C2762      H2773   1.110       .  S
C2762      H2774   1.110       .  S
C2762      H2775   1.108       .  S
C2764      C2765   1.399       .  A
C2764      C2769   1.507       .  S
C2765      C2766   1.409       .  A
C2765      H2770   1.084       .  S
C2766      C2767   1.424       .  A
C2767      C2768   1.402       .  A
C2767      C2771   1.509       .  S
C2768      H2772   1.084       .  S
C2769      H2779   1.111       .  S
C2769      H2780   1.110   1_554  S
C2769      H2781   1.110   1_554  S
C2771      H2782   1.110       .  S
C2771      H2783   1.110       .  S
C2771      H2784   1.111       .  S
C2785      C2786   1.401       .  A
C2785      C2790   1.406       .  A
C2785      H2795   1.084       .  S
C2786      C2791   1.483       .  S
C2786      C2787   1.410       .  A
C2787      C2788   1.400       .  A
C2787      C2792   1.508       .  S
C2788      C2789   1.406       .  A
C2788      H2793   1.084       .  S
C2789      C2790   1.423       .  A
C2790      C2794   1.509       .  S
C2791      C2796   1.411       .  A
C2791      C2800   1.402       .  A
C2792      H2808   1.110       .  S
C2792      H2809   1.110       .  S
C2792      H2810   1.111       .  S
C2794      H2805   1.111       .  S
C2794      H2806   1.110       .  S
C2794      H2807   1.102       .  S
C2796      C2797   1.399       .  A
C2796      C2801   1.509       .  S
C2797      C2798   1.406       .  A
C2797      H2802   1.084       .  S
C2798      C2799   1.418       .  A
C2799      C2800   1.407       .  A
C2799      C2803   1.505       .  S
C2800      H2804   1.084       .  S
C2801      H2811   1.111       .  S
C2801      H2812   1.109       .  S
C2801      H2813   1.110       .  S
C2803      H2814   1.111       .  S
C2803      H2815   1.110       .  S
C2803      H2816   1.107       .  S
C2817      C2818   1.400       .  A
C2817      C2822   1.406       .  A
C2817      H2827   1.084       .  S
C2818      C2823   1.474       .  S
C2818      C2819   1.410       .  A
C2819      C2820   1.395       .  A
C2819      C2824   1.510       .  S
C2820      C2821   1.404       .  A
C2820      H2825   1.084       .  S
C2821      C2822   1.418       .  A
C2822      C2826   1.507       .  S
C2823      C2828   1.411       .  A
C2823      C2832   1.400       .  A
C2824      H2840   1.110       .  S
C2824      H2841   1.110       .  S
C2824      H2842   1.111       .  S
C2826      H2837   1.111       .  S
C2826      H2838   1.109       .  S
C2826      H2839   1.111       .  S
C2828      C2829   1.401       .  A
C2828      C2833   1.506       .  S
C2829      C2830   1.401       .  A
C2829      H2834   1.084       .  S
C2830      C2831   1.413       .  A
C2831      C2832   1.399       .  A
C2831      C2835   1.506       .  S
C2832      H2836   1.085       .  S
C2833      H2843   1.111       .  S
C2833      H2844   1.110       .  S
C2833      H2845   1.110       .  S
C2835      H2846   1.110       .  S
C2835      H2847   1.109       .  S
C2835      H2848   1.109       .  S
C2849      C2850   1.404       .  A
C2849      C2854   1.409       .  A
C2849      H2859   1.084       .  S
C2850      C2855   1.482       .  S
C2850      C2851   1.411       .  A
C2851      C2852   1.400       .  A
C2851      C2856   1.509       .  S
C2852      C2853   1.403       .  A
C2852      H2857   1.085       .  S
C2853      C2854   1.416       .  A
C2854      C2858   1.507       .  S
C2855      C2860   1.411       .  A
C2855      C2864   1.400       .  A
C2856      H2872   1.110       .  S
C2856      H2873   1.109       .  S
C2856      H2874   1.111       .  S
C2858      H2869   1.110       .  S
C2858      H2870   1.111       .  S
C2858      H2871   1.107       .  S
C2860      C2861   1.407       .  A
C2860      C2865   1.506       .  S
C2861      C2862   1.406       .  A
C2861      H2866   1.084       .  S
C2862      C2863   1.418       .  A
C2863      C2864   1.402       .  A
C2863      C2867   1.508       .  S
C2864      H2868   1.085       .  S
C2865      H2875   1.111       .  S
C2865      H2876   1.110       .  S
C2865      H2877   1.109       .  S
C2867      H2878   1.111       .  S
C2867      H2879   1.107       .  S
C2867      H2880   1.110       .  S
C2881      C2882   1.399       .  A
C2881      C2886   1.400       .  A
C2881      H2891   1.084       .  S
C2882      C2887   1.479       .  S
C2882      C2883   1.409       .  A
C2883      C2884   1.403       .  A
C2883      C2888   1.507       .  S
C2884      C2885   1.409       .  A
C2884      H2889   1.083       .  S
C2885      C2886   1.423       .  A
C2886      C2890   1.511       .  S
C2887      C2892   1.411       .  A
C2887      C2896   1.399       .  A
C2888      H2904   1.109       .  S
C2888      H2905   1.110       .  S
C2888      H2906   1.111       .  S
C2890      H2901   1.111       .  S
C2890      H2902   1.109       .  S
C2890      H2903   1.111       .  S
C2892      C2893   1.405       .  A
C2892      C2897   1.506       .  S
C2893      C2894   1.406       .  A
C2893      H2898   1.084       .  S
C2894      C2895   1.418       .  A
C2895      C2896   1.397       .  A
C2895      C2899   1.509       .  S
C2896      H2900   1.085       .  S
C2897      H2907   1.111       .  S
C2897      H2908   1.109       .  S
C2897      H2909   1.110       .  S
C2899      H2910   1.108       .  S
C2899      H2911   1.110       .  S
C2899      H2912   1.111       .  S
C2913      C2914   1.400       .  A
C2913      C2918   1.399       .  A
C2913      H2923   1.085       .  S
C2914      C2919   1.480       .  S
C2914      C2915   1.412       .  A
C2915      C2916   1.406       .  A
C2915      C2920   1.505       .  S
C2916      C2917   1.403       .  A
C2916      H2921   1.084       .  S
C2917      C2918   1.414       .  A
C2918      C2922   1.509       .  S
C2919      C2924   1.410       .  A
C2919      C2928   1.400       .  A
C2920      H2936   1.110       .  S
C2920      H2937   1.110       .  S
C2920      H2938   1.111       .  S
C2922      H2933   1.110       .  S
C2922      H2934   1.110       .  S
C2922      H2935   1.108       .  S
C2924      C2925   1.406       .  A
C2924      C2929   1.505       .  S
C2925      C2926   1.406       .  A
C2925      H2930   1.084       .  S
C2926      C2927   1.417       .  A
C2927      C2928   1.402       .  A
C2927      C2931   1.509       .  S
C2928      H2932   1.084       .  S
C2929      H2939   1.111       .  S
C2929      H2940   1.110       .  S
C2929      H2941   1.110       .  S
C2931      H2942   1.109       .  S
C2931      H2943   1.109       .  S
C2931      H2944   1.111       .  S
C2945      C2946   1.398       .  A
C2945      C2950   1.397       .  A
C2945      H2955   1.085       .  S
C2946      C2951   1.480       .  S
C2946      C2947   1.410       .  A
C2947      C2948   1.408       .  A
C2947      C2952   1.505       .  S
C2948      C2949   1.406       .  A
C2948      H2953   1.084       .  S
C2949      C2950   1.419       .  A
C2950      C2954   1.510       .  S
C2951      C2956   1.409       .  A
C2951      C2960   1.399       .  A
C2952      H2968   1.110       .  S
C2952      H2969   1.110       .  S
C2952      H2970   1.111       .  S
C2954      H2965   1.111       .  S
C2954      H2966   1.110       .  S
C2954      H2967   1.104       .  S
C2956      C2957   1.401       .  A
C2956      C2961   1.507       .  S
C2957      C2958   1.408       .  A
C2957      H2962   1.083       .  S
C2958      C2959   1.423       .  A
C2959      C2960   1.406       .  A
C2959      C2963   1.509       .  S
C2960      H2964   1.084       .  S
C2961      H2971   1.111       .  S
C2961      H2972   1.110       .  S
C2961      H2973   1.110       .  S
C2963      H2974   1.111       .  S
C2963      H2975   1.109       .  S
C2963      H2976   1.110       .  S
C2977      C2978   1.403       .  A
C2977      C2982   1.409       .  A
C2977      H2987   1.084       .  S
C2978      C2983   1.485       .  S
C2978      C2979   1.410       .  A
C2979      C2980   1.401       .  A
C2979      C2984   1.509       .  S
C2980      C2981   1.407       .  A
C2980      H2985   1.085       .  S
C2981      C2982   1.421       .  A
C2982      C2986   1.508       .  S
C2983      C2988   1.413       .  A
C2983      C2992   1.400       .  A
C2984      H3000   1.110       .  S
C2984      H3001   1.108       .  S
C2984      H3002   1.111       .  S
C2986      H2997   1.110       .  S
C2986      H2998   1.111       .  S
C2986      H2999   1.104       .  S
C2988      C2989   1.409       .  A
C2988      C2993   1.506       .  S
C2989      C2990   1.404       .  A
C2989      H2994   1.084       .  S
C2990      C2991   1.417       .  A
C2991      C2992   1.401       .  A
C2991      C2995   1.509       .  S
C2992      H2996   1.085       .  S
C2993      H3003   1.111       .  S
C2993      H3004   1.110       .  S
C2993      H3005   1.109       .  S
C2995      H3006   1.111       .  S
C2995      H3007   1.108       .  S
C2995      H3008   1.110       .  S
C3009      C3010   1.402       .  A
C3009      C3014   1.404       .  A
C3009      H3019   1.085       .  S
C3010      C3015   1.484       .  S
C3010      C3011   1.410       .  A
C3011      C3012   1.406       .  A
C3011      C3016   1.505       .  S
C3012      C3013   1.406       .  A
C3012      H3017   1.084       .  S
C3013      C3014   1.417       .  A
C3014      C3018   1.508       .  S
C3015      C3020   1.409       .  A
C3015      C3024   1.399       .  A
C3016      H3032   1.110       .  S
C3016      H3033   1.110       .  S
C3016      H3034   1.111       .  S
C3018      H3029   1.110       .  S
C3018      H3030   1.111       .  S
C3018      H3031   1.105       .  S
C3020      C3021   1.407       .  A
C3020      C3025   1.505       .  S
C3021      C3022   1.407       .  A
C3021      H3026   1.084       .  S
C3022      C3023   1.422       .  A
C3023      C3024   1.402       .  A
C3023      C3027   1.511       .  S
C3024      H3028   1.085       .  S
C3025      H3035   1.111       .  S
C3025      H3036   1.110       .  S
C3025      H3037   1.110       .  S
C3027      H3038   1.111       .  S
C3027      H3039   1.103       .  S
C3027      H3040   1.110       .  S
C3041      C3042   1.400       .  A
C3041      C3046   1.402       .  A
C3041      H3051   1.085       .  S
C3042      C3047   1.479   1_554  S
C3042      C3043   1.411       .  A
C3043      C3044   1.403       .  A
C3043      C3048   1.507       .  S
C3044      C3045   1.404       .  A
C3044      H3049   1.084       .  S
C3045      C3046   1.418       .  A
C3046      C3050   1.509       .  S
C3047      C3052   1.409       .  A
C3047      C3056   1.401       .  A
C3048      H3064   1.110   1_554  S
C3048      H3065   1.110   1_554  S
C3048      H3066   1.111       .  S
C3050      H3061   1.111       .  S
C3050      H3062   1.110       .  S
C3050      H3063   1.107       .  S
C3052      C3053   1.402       .  A
C3052      C3057   1.507       .  S
C3053      C3054   1.407       .  A
C3053      H3058   1.084       .  S
C3054      C3055   1.417       .  A
C3055      C3056   1.404       .  A
C3055      C3059   1.508       .  S
C3056      H3060   1.084       .  S
C3057      H3067   1.111       .  S
C3057      H3068   1.110       .  S
C3057      H3069   1.110       .  S
C3059      H3070   1.109       .  S
C3059      H3071   1.111       .  S
C3059      H3072   1.111       .  S
C3073      C3074   1.403       .  A
C3073      C3078   1.406       .  A
C3073      H3083   1.084       .  S
C3074      C3079   1.484       .  S
C3074      C3075   1.412       .  A
C3075      C3076   1.402       .  A
C3075      C3080   1.507       .  S
C3076      C3077   1.401       .  A
C3076      H3081   1.085       .  S
C3077      C3078   1.415       .  A
C3078      C3082   1.508       .  S
C3079      C3084   1.411       .  A
C3079      C3088   1.403       .  A
C3080      H3096   1.110       .  S
C3080      H3097   1.110       .  S
C3080      H3098   1.111       .  S
C3082      H3093   1.111       .  S
C3082      H3094   1.110       .  S
C3082      H3095   1.108       .  S
C3084      C3085   1.400       .  A
C3084      C3089   1.508       .  S
C3085      C3086   1.403       .  A
C3085      H3090   1.085       .  S
C3086      C3087   1.417       .  A
C3087      C3088   1.408       .  A
C3087      C3091   1.508       .  S
C3088      H3092   1.084       .  S
C3089      H3099   1.111       .  S
C3089      H3100   1.110       .  S
C3089      H3101   1.110       .  S
C3091      H3102   1.110       .  S
C3091      H3103   1.106       .  S
C3091      H3104   1.111       .  S
C3105      C3106   1.402       .  A
C3105      C3110   1.405       .  A
C3105      H3115   1.084       .  S
C3106      C3111   1.481       .  S
C3106      C3107   1.410       .  A
C3107      C3108   1.399       .  A
C3107      C3112   1.508       .  S
C3108      C3109   1.403       .  A
C3108      H3113   1.082       .  S
C3109      C3110   1.418       .  A
C3110      C3114   1.509       .  S
C3111      C3116   1.409       .  A
C3111      C3120   1.401       .  A
C3112      H3128   1.110       .  S
C3112      H3129   1.111       .  S
C3112      H3130   1.111       .  S
C3114      H3125   1.111       .  S
C3114      H3126   1.110       .  S
C3114      H3127   1.105       .  S
C3116      C3117   1.397       .  A
C3116      C3121   1.510       .  S
C3117      C3118   1.410       .  A
C3117      H3122   1.084       .  S
C3118      C3119   1.422       .  A
C3119      C3120   1.408       .  A
C3119      C3123   1.507       .  S
C3120      H3124   1.084       .  S
C3121      H3131   1.111       .  S
C3121      H3132   1.109       .  S
C3121      H3133   1.111       .  S
C3123      H3134   1.111       .  S
C3123      H3135   1.110       .  S
C3123      H3136   1.109       .  S
C3137      C3138   1.402       .  A
C3137      C3142   1.408       .  A
C3137      H3147   1.084       .  S
C3138      C3143   1.481       .  S
C3138      C3139   1.410       .  A
C3139      C3140   1.399       .  A
C3139      C3144   1.508       .  S
C3140      C3141   1.404       .  A
C3140      H3145   1.084       .  S
C3141      C3142   1.420       .  A
C3142      C3146   1.508       .  S
C3143      C3148   1.410       .  A
C3143      C3152   1.400       .  A
C3144      H3160   1.110       .  S
C3144      H3161   1.110       .  S
C3144      H3162   1.111       .  S
C3146      H3157   1.110       .  S
C3146      H3158   1.111       .  S
C3146      H3159   1.105       .  S
C3148      C3149   1.407       .  A
C3148      C3153   1.505       .  S
C3149      C3150   1.405       .  A
C3149      H3154   1.084       .  S
C3150      C3151   1.418       .  A
C3151      C3152   1.401       .  A
C3151      C3155   1.507       .  S
C3152      H3156   1.085       .  S
C3153      H3163   1.111       .  S
C3153      H3164   1.110       .  S
C3153      H3165   1.110       .  S
C3155      H3166   1.111       .  S
C3155      H3167   1.107       .  S
C3155      H3168   1.110       .  S
C3169      C3170   1.403       .  A
C3169      C3174   1.406       .  A
C3169      H3179   1.084       .  S
C3170      C3175   1.476       .  S
C3170      C3171   1.413       .  A
C3171      C3172   1.397       .  A
C3171      C3176   1.510       .  S
C3172      C3173   1.399       .  A
C3172      H3177   1.085       .  S
C3173      C3174   1.414       .  A
C3174      C3178   1.508       .  S
C3175      C3180   1.411       .  A
C3175      C3184   1.399       .  A
C3176      H3192   1.110       .  S
C3176      H3193   1.108       .  S
C3176      H3194   1.111       .  S
C3178      H3189   1.110       .  S
C3178      H3190   1.111       .  S
C3178      H3191   1.108       .  S
C3180      C3181   1.406       .  A
C3180      C3185   1.506       .  S
C3181      C3182   1.403       .  A
C3181      H3186   1.084       .  S
C3182      C3183   1.414       .  A
C3183      C3184   1.397       .  A
C3183      C3187   1.509       .  S
C3184      H3188   1.085       .  S
C3185      H3195   1.111       .  S
C3185      H3196   1.110       .  S
C3185      H3197   1.109       .  S
C3187      H3198   1.110       .  S
C3187      H3199   1.108       .  S
C3187      H3200   1.110       .  S
C3201      C3202   1.400       .  A
C3201      C3206   1.400       .  A
C3201      H3211   1.085       .  S
C3202      C3207   1.481       .  S
C3202      C3203   1.411       .  A
C3203      C3204   1.407       .  A
C3203      C3208   1.506       .  S
C3204      C3205   1.406       .  A
C3204      H3209   1.084       .  S
C3205      C3206   1.417       .  A
C3206      C3210   1.509       .  S
C3207      C3212   1.408       .  A
C3207      C3216   1.402       .  A
C3208      H3224   1.110       .  S
C3208      H3225   1.109       .  S
C3208      H3226   1.111       .  S
C3210      H3221   1.110       .  S
C3210      H3222   1.110       .  S
C3210      H3223   1.108       .  S
C3212      C3213   1.396       .  A
C3212      C3217   1.511       .  S
C3213      C3214   1.411       .  A
C3213      H3218   1.082       .  S
C3214      C3215   1.422       .  A
C3215      C3216   1.412       .  A
C3215      C3219   1.506       .  S
C3216      H3220   1.084       .  S
C3217      H3227   1.111       .  S
C3217      H3228   1.110       .  S
C3217      H3229   1.109       .  S
C3219      H3230   1.110       .  S
C3219      H3231   1.110       .  S
C3219      H3232   1.111       .  S
C3233      C3234   1.400       .  A
C3233      C3238   1.405       .  A
C3233      H3243   1.084       .  S
C3234      C3239   1.481       .  S
C3234      C3235   1.410       .  A
C3235      C3236   1.403       .  A
C3235      C3240   1.507       .  S
C3236      C3237   1.405       .  A
C3236      H3241   1.084       .  S
C3237      C3238   1.420       .  A
C3238      C3242   1.509       .  S
C3239      C3244   1.411       .  A
C3239      C3248   1.400       .  A
C3240      H3256   1.110       .  S
C3240      H3257   1.110       .  S
C3240      H3258   1.111       .  S
C3242      H3253   1.110       .  S
C3242      H3254   1.111       .  S
C3242      H3255   1.109       .  S
C3244      C3245   1.407       .  A
C3244      C3249   1.505       .  S
C3245      C3246   1.404       .  A
C3245      H3250   1.084       .  S
C3246      C3247   1.417       .  A
C3247      C3248   1.399       .  A
C3247      C3251   1.510       .  S
C3248      H3252   1.085       .  S
C3249      H3259   1.111       .  S
C3249      H3260   1.110       .  S
C3249      H3261   1.110       .  S
C3251      H3262   1.110       .  S
C3251      H3263   1.106       .  S
C3251      H3264   1.111       .  S
C3265      C3266   1.399       .  A
C3265      C3270   1.400       .  A
C3265      H3275   1.085       .  S
C3266      C3271   1.484       .  S
C3266      C3267   1.412       .  A
C3267      C3268   1.410       .  A
C3267      C3272   1.506       .  S
C3268      C3269   1.407       .  A
C3268      H3273   1.084       .  S
C3269      C3270   1.418       .  A
C3270      C3274   1.509       .  S
C3271      C3276   1.413       .  A
C3271      C3280   1.405       .  A
C3272      H3288   1.110       .  S
C3272      H3289   1.108       .  S
C3272      H3290   1.111       .  S
C3274      H3285   1.108       .  S
C3274      H3286   1.111       .  S
C3274      H3287   1.111       .  S
C3276      C3277   1.402       .  A
C3276      C3281   1.509       .  S
C3277      C3278   1.402       .  A
C3277      H3282   1.085       .  S
C3278      C3279   1.414       .  A
C3279      C3280   1.408       .  A
C3279      C3283   1.507       .  S
C3280      H3284   1.084       .  S
C3281      H3291   1.111       .  S
C3281      H3292   1.110       .  S
C3281      H3293   1.108       .  S
C3283      H3294   1.111       .  S
C3283      H3295   1.108       .  S
C3283      H3296   1.110       .  S
C3297      C3298   1.400       .  A
C3297      C3302   1.398       .  A
C3297      H3307   1.085       .  S
C3298      C3303   1.481       .  S
C3298      C3299   1.411       .  A
C3299      C3300   1.406       .  A
C3299      C3304   1.505       .  S
C3300      C3301   1.405       .  A
C3300      H3305   1.084       .  S
C3301      C3302   1.418       .  A
C3302      C3306   1.511       .  S
C3303      C3308   1.409       .  A
C3303      C3312   1.400       .  A
C3304      H3320   1.109       .  S
C3304      H3321   1.110       .  S
C3304      H3322   1.111       .  S
C3306      H3317   1.110       .  S
C3306      H3318   1.111       .  S
C3306      H3319   1.104       .  S
C3308      C3309   1.403       .  A
C3308      C3313   1.507       .  S
C3309      C3310   1.407       .  A
C3309      H3314   1.084       .  S
C3310      C3311   1.420       .  A
C3311      C3312   1.403       .  A
C3311      C3315   1.509       .  S
C3312      H3316   1.085       .  S
C3313      H3323   1.111       .  S
C3313      H3324   1.109       .  S
C3313      H3325   1.110       .  S
C3315      H3326   1.111       .  S
C3315      H3327   1.102       .  S
C3315      H3328   1.110       .  S
C3329      C3330   1.402       .  A
C3329      C3334   1.405       .  A
C3329      H3339   1.084       .  S
C3330      C3335   1.483   1_556  S
C3330      C3331   1.411       .  A
C3331      C3332   1.403       .  A
C3331      C3336   1.507       .  S
C3332      C3333   1.404       .  A
C3332      H3337   1.084       .  S
C3333      C3334   1.416       .  A
C3334      C3338   1.508       .  S
C3335      C3340   1.411       .  A
C3335      C3344   1.401       .  A
C3336      H3352   1.110       .  S
C3336      H3353   1.110       .  S
C3336      H3354   1.111       .  S
C3338      H3349   1.111       .  S
C3338      H3350   1.109       .  S
C3338      H3351   1.111       .  S
C3340      C3341   1.404       .  A
C3340      C3345   1.506       .  S
C3341      C3342   1.404       .  A
C3341      H3346   1.084       .  S
C3342      C3343   1.417       .  A
C3343      C3344   1.403       .  A
C3343      C3347   1.509       .  S
C3344      H3348   1.085       .  S
C3345      H3355   1.111       .  S
C3345      H3356   1.110       .  S
C3345      H3357   1.110       .  S
C3347      H3358   1.110       .  S
C3347      H3359   1.107       .  S
C3347      H3360   1.111       .  S
C3361      C3362   1.403       .  A
C3361      C3366   1.407       .  A
C3361      H3371   1.084       .  S
C3362      C3367   1.477       .  S
C3362      C3363   1.411       .  A
C3363      C3364   1.397       .  A
C3363      C3368   1.511       .  S
C3364      C3365   1.407       .  A
C3364      H3369   1.084       .  S
C3365      C3366   1.417       .  A
C3366      C3370   1.506       .  S
C3367      C3372   1.410       .  A
C3367      C3376   1.397       .  A
C3368      H3384   1.110       .  S
C3368      H3385   1.107       .  S
C3368      H3386   1.111       .  S
C3370      H3381   1.109       .  S
C3370      H3382   1.111       .  S
C3370      H3383   1.110       .  S
C3372      C3373   1.406       .  A
C3372      C3377   1.506       .  S
C3373      C3374   1.407       .  A
C3373      H3378   1.083       .  S
C3374      C3375   1.417       .  A
C3375      C3376   1.397       .  A
C3375      C3379   1.505       .  S
C3376      H3380   1.084       .  S
C3377      H3387   1.111       .  S
C3377      H3388   1.110       .  S
C3377      H3389   1.107       .  S
C3379      H3390   1.111       .  S
C3379      H3391   1.111       .  S
C3379      H3392   1.109       .  S
C3393      C3394   1.402       .  A
C3393      C3398   1.407       .  A
C3393      H3403   1.084       .  S
C3394      C3399   1.482       .  S
C3394      C3395   1.410       .  A
C3395      C3396   1.400       .  A
C3395      C3400   1.508       .  S
C3396      C3397   1.406       .  A
C3396      H3401   1.085       .  S
C3397      C3398   1.417       .  A
C3398      C3402   1.505       .  S
C3399      C3404   1.409       .  A
C3399      C3408   1.401       .  A
C3400      H3416   1.110       .  S
C3400      H3417   1.110       .  S
C3400      H3418   1.111       .  S
C3402      H3413   1.108       .  S
C3402      H3414   1.111       .  S
C3402      H3415   1.110       .  S
C3404      C3405   1.398       .  A
C3404      C3409   1.510       .  S
C3405      C3406   1.410       .  A
C3405      H3410   1.083       .  S
C3406      C3407   1.423       .  A
C3407      C3408   1.410       .  A
C3407      C3411   1.507       .  S
C3408      H3412   1.084       .  S
C3409      H3419   1.111       .  S
C3409      H3420   1.109       .  S
C3409      H3421   1.111       .  S
C3411      H3422   1.111       .  S
C3411      H3423   1.110       .  S
C3411      H3424   1.110       .  S
C3425      C3426   1.399       .  A
C3425      C3430   1.400       .  A
C3425      H3435   1.085       .  S
C3426      C3431   1.481       .  S
C3426      C3427   1.410       .  A
C3427      C3428   1.408       .  A
C3427      C3432   1.505       .  S
C3428      C3429   1.405       .  A
C3428      H3433   1.084       .  S
C3429      C3430   1.418       .  A
C3430      C3434   1.509       .  S
C3431      C3436   1.409       .  A
C3431      C3440   1.401       .  A
C3432      H3448   1.110       .  S
C3432      H3449   1.110       .  S
C3432      H3450   1.111       .  S
C3434      H3445   1.110       .  S
C3434      H3446   1.111       .  S
C3434      H3447   1.108       .  S
C3436      C3437   1.400       .  A
C3436      C3441   1.508       .  S
C3437      C3438   1.407       .  A
C3437      H3442   1.084       .  S
C3438      C3439   1.422       .  A
C3439      C3440   1.407       .  A
C3439      C3443   1.509       .  S
C3440      H3444   1.084       .  S
C3441      H3451   1.111       .  S
C3441      H3452   1.110       .  S
C3441      H3453   1.109       .  S
C3443      H3454   1.111       .  S
C3443      H3455   1.103       .  S
C3443      H3456   1.110       .  S
C3457      C3458   1.400       .  A
C3457      C3462   1.402       .  A
C3457      H3467   1.085       .  S
C3458      C3463   1.481       .  S
C3458      C3459   1.410       .  A
C3459      C3460   1.406       .  A
C3459      C3464   1.506       .  S
C3460      C3461   1.407       .  A
C3460      H3465   1.084       .  S
C3461      C3462   1.418       .  A
C3462      C3466   1.509       .  S
C3463      C3468   1.408       .  A
C3463      C3472   1.401       .  A
C3464      H3480   1.110       .  S
C3464      H3481   1.110       .  S
C3464      H3482   1.111       .  S
C3466      H3477   1.110       .  S
C3466      H3478   1.111       .  S
C3466      H3479   1.108       .  S
C3468      C3469   1.398       .  A
C3468      C3473   1.509       .  S
C3469      C3470   1.409       .  A
C3469      H3474   1.083       .  S
C3470      C3471   1.424       .  A
C3471      C3472   1.410       .  A
C3471      C3475   1.507       .  S
C3472      H3476   1.084       .  S
C3473      H3483   1.111       .  S
C3473      H3484   1.110       .  S
C3473      H3485   1.110       .  S
C3475      H3486   1.109       .  S
C3475      H3487   1.111       .  S
C3475      H3488   1.111       .  S
C3489      C3490   1.401       .  A
C3489      C3494   1.398       .  A
C3489      H3499   1.085       .  S
C3490      C3495   1.477       .  S
C3490      C3491   1.411       .  A
C3491      C3492   1.406       .  A
C3491      C3496   1.506       .  S
C3492      C3493   1.404       .  A
C3492      H3497   1.084       .  S
C3493      C3494   1.412       .  A
C3494      C3498   1.509       .  S
C3495      C3500   1.412       .  A
C3495      C3504   1.403       .  A
C3496      H3512   1.110       .  S
C3496      H3513   1.109       .  S
C3496      H3514   1.111       .  S
C3498      H3509   1.110       .  S
C3498      H3510   1.110       .  S
C3498      H3511   1.109       .  S
C3500      C3501   1.397       .  A
C3500      C3505   1.510       .  S
C3501      C3502   1.402       .  A
C3501      H3506   1.085       .  S
C3502      C3503   1.416       .  A
C3503      C3504   1.406       .  A
C3503      C3507   1.507       .  S
C3504      H3508   1.084       .  S
C3505      H3515   1.111       .  S
C3505      H3516   1.110       .  S
C3505      H3517   1.108       .  S
C3507      H3518   1.111       .  S
C3507      H3519   1.107       .  S
C3507      H3520   1.110       .  S
C3521      C3522   1.402       .  A
C3521      C3526   1.406       .  A
C3521      H3531   1.084       .  S
C3522      C3527   1.484       .  S
C3522      C3523   1.414       .  A
C3523      C3524   1.405       .  A
C3523      C3528   1.508       .  S
C3524      C3525   1.403       .  A
C3524      H3529   1.085       .  S
C3525      C3526   1.414       .  A
C3526      C3530   1.506       .  S
C3527      C3532   1.409       .  A
C3527      C3536   1.398       .  A
C3528      H3544   1.110       .  S
C3528      H3545   1.108       .  S
C3528      H3546   1.111       .  S
C3530      H3541   1.110       .  S
C3530      H3542   1.111       .  S
C3530      H3543   1.109       .  S
C3532      C3533   1.407       .  A
C3532      C3537   1.507       .  S
C3533      C3534   1.410       .  A
C3533      H3538   1.084       .  S
C3534      C3535   1.424       .  A
C3535      C3536   1.404       .  A
C3535      C3539   1.509       .  S
C3536      H3540   1.085       .  S
C3537      H3547   1.111       .  S
C3537      H3548   1.110       .  S
C3537      H3549   1.108       .  S
C3539      H3550   1.110       .  S
C3539      H3551   1.110       .  S
C3539      H3552   1.111       .  S
C3553      C3554   1.402       .  A
C3553      C3558   1.405       .  A
C3553      H3563   1.084       .  S
C3554      C3559   1.479       .  S
C3554      C3555   1.410       .  A
C3555      C3556   1.401       .  A
C3555      C3560   1.507       .  S
C3556      C3557   1.404       .  A
C3556      H3561   1.085       .  S
C3557      C3558   1.414       .  A
C3558      C3562   1.505       .  S
C3559      C3564   1.408       .  A
C3559      C3568   1.401       .  A
C3560      H3576   1.110       .  S
C3560      H3577   1.111       .  S
C3560      H3578   1.111       .  S
C3562      H3573   1.110       .  S
C3562      H3574   1.110       .  S
C3562      H3575   1.107       .  S
C3564      C3565   1.400       .  A
C3564      C3569   1.507       .  S
C3565      C3566   1.408       .  A
C3565      H3570   1.084       .  S
C3566      C3567   1.419       .  A
C3567      C3568   1.405       .  A
C3567      C3571   1.507       .  S
C3568      H3572   1.084       .  S
C3569      H3579   1.111       .  S
C3569      H3580   1.110       .  S
C3569      H3581   1.110       .  S
C3571      H3582   1.111       .  S
C3571      H3583   1.105       .  S
C3571      H3584   1.110       .  S
C3585      C3586   1.403       .  A
C3585      C3590   1.409       .  A
C3585      H3595   1.084       .  S
C3586      C3591   1.480       .  S
C3586      C3587   1.409       .  A
C3587      C3588   1.398       .  A
C3587      C3592   1.509       .  S
C3588      C3589   1.404       .  A
C3588      H3593   1.084       .  S
C3589      C3590   1.419       .  A
C3590      C3594   1.507       .  S
C3591      C3596   1.410       .  A
C3591      C3600   1.399       .  A
C3592      H3608   1.110       .  S
C3592      H3609   1.110       .  S
C3592      H3610   1.111       .  S
C3594      H3605   1.110       .  S
C3594      H3606   1.111       .  S
C3594      H3607   1.106       .  S
C3596      C3597   1.406       .  A
C3596      C3601   1.505       .  S
C3597      C3598   1.405       .  A
C3597      H3602   1.084       .  S
C3598      C3599   1.419       .  A
C3599      C3600   1.401       .  A
C3599      C3603   1.510       .  S
C3600      H3604   1.085       .  S
C3601      H3611   1.111       .  S
C3601      H3612   1.110       .  S
C3601      H3613   1.110       .  S
C3603      H3614   1.111       .  S
C3603      H3615   1.108       .  S
C3603      H3616   1.110       .  S
C3617      C3618   1.402       .  A
C3617      C3622   1.405       .  A
C3617      H3627   1.084       .  S
C3618      C3623   1.484       .  S
C3618      C3619   1.412       .  A
C3619      C3620   1.404       .  A
C3619      C3624   1.507       .  S
C3620      C3621   1.403       .  A
C3620      H3625   1.084       .  S
C3621      C3622   1.417       .  A
C3622      C3626   1.508       .  S
C3623      C3628   1.411       .  A
C3623      C3632   1.401       .  A
C3624      H3640   1.110       .  S
C3624      H3641   1.110       .  S
C3624      H3642   1.111       .  S
C3626      H3637   1.110       .  S
C3626      H3638   1.111       .  S
C3626      H3639   1.108       .  S
C3628      C3629   1.403       .  A
C3628      C3633   1.507       .  S
C3629      C3630   1.406       .  A
C3629      H3634   1.084       .  S
C3630      C3631   1.420       .  A
C3631      C3632   1.406       .  A
C3631      C3635   1.508       .  S
C3632      H3636   1.084       .  S
C3633      H3643   1.111       .  S
C3633      H3644   1.110       .  S
C3633      H3645   1.110       .  S
C3635      H3646   1.111       .  S
C3635      H3647   1.106       .  S
C3635      H3648   1.110       .  S
C3649      C3650   1.399       .  A
C3649      C3654   1.402       .  A
C3649      H3659   1.084       .  S
C3650      C3655   1.480       .  S
C3650      C3651   1.407       .  A
C3651      C3652   1.404       .  A
C3651      C3656   1.506       .  S
C3652      C3653   1.410       .  A
C3652      H3657   1.084       .  S
C3653      C3654   1.422       .  A
C3654      C3658   1.509       .  S
C3655      C3660   1.409       .  A
C3655      C3664   1.401       .  A
C3656      H3672   1.109       .  S
C3656      H3673   1.110       .  S
C3656      H3674   1.111       .  S
C3658      H3669   1.110       .  S
C3658      H3670   1.111       .  S
C3658      H3671   1.110       .  S
C3660      C3661   1.402       .  A
C3660      C3665   1.506       .  S
C3661      C3662   1.405       .  A
C3661      H3666   1.084       .  S
C3662      C3663   1.418       .  A
C3663      C3664   1.403       .  A
C3663      C3667   1.507       .  S
C3664      H3668   1.085       .  S
C3665      H3675   1.111       .  S
C3665      H3676   1.109       .  S
C3665      H3677   1.110       .  S
C3667      H3678   1.111       .  S
C3667      H3679   1.103       .  S
C3667      H3680   1.110       .  S
C3681      C3682   1.400       .  A
C3681      C3686   1.404       .  A
C3681      H3691   1.084       .  S
C3682      C3687   1.477   1_556  S
C3682      C3683   1.410       .  A
C3683      C3684   1.402       .  A
C3683      C3688   1.507       .  S
C3684      C3685   1.404       .  A
C3684      H3689   1.084       .  S
C3685      C3686   1.417       .  A
C3686      C3690   1.509       .  S
C3687      C3692   1.410       .  A
C3687      C3696   1.399       .  A
C3688      H3704   1.110       .  S
C3688      H3705   1.109       .  S
C3688      H3706   1.111       .  S
C3690      H3701   1.109       .  S
C3690      H3702   1.111       .  S
C3690      H3703   1.111       .  S
C3692      C3693   1.402       .  A
C3692      C3697   1.507       .  S
C3693      C3694   1.405       .  A
C3693      H3698   1.084       .  S
C3694      C3695   1.420       .  A
C3695      C3696   1.402       .  A
C3695      C3699   1.510       .  S
C3696      H3700   1.085       .  S
C3697      H3707   1.111       .  S
C3697      H3708   1.110   1_554  S
C3697      H3709   1.109   1_554  S
C3699      H3710   1.111       .  S
C3699      H3711   1.106       .  S
C3699      H3712   1.110       .  S
C3713      C3714   1.404       .  A
C3713      C3718   1.406       .  A
C3713      H3723   1.084       .  S
C3714      C3719   1.477       .  S
C3714      C3715   1.410       .  A
C3715      C3716   1.397       .  A
C3715      C3720   1.509       .  S
C3716      C3717   1.403       .  A
C3716      H3721   1.085       .  S
C3717      C3718   1.413       .  A
C3718      C3722   1.506       .  S
C3719      C3724   1.408       .  A
C3719      C3728   1.402       .  A
C3720      H3736   1.110       .  S
C3720      H3737   1.111       .  S
C3720      H3738   1.111       .  S
C3722      H3733   1.111       .  S
C3722      H3734   1.111       .  S
C3722      H3735   1.110       .  S
C3724      C3725   1.393       .  A
C3724      C3729   1.510       .  S
C3725      C3726   1.405       .  A
C3725      H3730   1.079       .  S
C3726      C3727   1.422       .  A
C3727      C3728   1.409       .  A
C3727      C3731   1.507       .  S
C3728      H3732   1.084       .  S
C3729      H3739   1.111       .  S
C3729      H3740   1.110       .  S
C3729      H3741   1.110       .  S
C3731      H3742   1.111       .  S
C3731      H3743   1.110       .  S
C3731      H3744   1.110       .  S
C3745      C3746   1.403       .  A
C3745      C3750   1.403       .  A
C3745      H3755   1.084       .  S
C3746      C3751   1.480       .  S
C3746      C3747   1.412       .  A
C3747      C3748   1.402       .  A
C3747      C3752   1.507       .  S
C3748      C3749   1.402       .  A
C3748      H3753   1.084       .  S
C3749      C3750   1.411       .  A
C3750      C3754   1.507       .  S
C3751      C3756   1.412       .  A
C3751      C3760   1.400       .  A
C3752      H3768   1.109       .  S
C3752      H3769   1.110       .  S
C3752      H3770   1.111       .  S
C3754      H3765   1.111       .  S
C3754      H3766   1.110       .  S
C3754      H3767   1.111       .  S
C3756      C3757   1.408       .  A
C3756      C3761   1.505       .  S
C3757      C3758   1.405       .  A
C3757      H3762   1.084       .  S
C3758      C3759   1.415       .  A
C3759      C3760   1.396       .  A
C3759      C3763   1.510       .  S
C3760      H3764   1.085       .  S
C3761      H3771   1.111       .  S
C3761      H3772   1.110       .  S
C3761      H3773   1.110       .  S
C3763      H3774   1.110       .  S
C3763      H3775   1.107       .  S
C3763      H3776   1.111       .  S
