geometry optimzed in LAMMPS
_audit_creation_date              2020-12-01 
_audit_creation_method            'lammps2cif' 
_symmetry_space_group_name_H-M    'P1' 
_symmetry_Int_Tables_number       1 
_symmetry_cell_setting            triclinic 
loop_ 
_symmetry_equiv_pos_as_xyz 
  x,y,z 
_cell_length_a                    60.07724632 
_cell_length_b                    60.13077386667983 
_cell_length_c                    44.30410619527123 
_cell_angle_alpha                 90.05659584546463 
_cell_angle_beta                  89.78626812341979 
_cell_angle_gamma                 120.09015541256669 
loop_ 
_atom_site_label 
_atom_site_type_symbol 
_atom_site_fract_x 
_atom_site_fract_y 
_atom_site_fract_z 
_atom_site_charge 
O1          O  0.13382097  0.25550996  0.24099132    -0.85500
O2          O  0.08972362  0.21529920  0.26272969    -0.82600
C3          C  0.07493902  0.19404672  0.27508157     0.97900
O4          O  0.08318653  0.18582494  0.29615621    -0.82600
O5          O  0.12052011  0.17506078  0.27162925    -0.85200
C6          C  0.14203904  0.17966548  0.26102427     1.02500
O7          O  0.16189048  0.20140839  0.26491244    -0.78000
O8          O  0.15320805  0.23372727  0.23018966    -0.78200
C9          C  0.14114702  0.24478902  0.22182006     1.02400
O10         O  0.14899147  0.27378586  0.30249365    -0.85500
O11         O  0.10299324  0.23496445  0.32394688    -0.82600
C12         C  0.10932353  0.22705737  0.34708294     0.98000
O13         O  0.11932703  0.21311003  0.34437062    -0.82600
O14         O  0.15245503  0.19864651  0.32303748    -0.85200
C15         C  0.17414112  0.21845095  0.32768591     1.02400
O16         O  0.18151235  0.23863685  0.31223750    -0.78000
O17         O  0.17858064  0.27394112  0.27379078    -0.78200
C18         C  0.17127870  0.28562509  0.29130455     1.02400
Cr19       Cr  0.12009511  0.24347327  0.28289333     1.93700
Cr20       Cr  0.11979967  0.19536346  0.30707530     1.93200
Cr21       Cr  0.16642954  0.23618893  0.27153762     1.39100
O22         O  0.13526580  0.22488003  0.28698499    -1.23300
O23         O  0.22504836  0.44987531  0.34497606    -0.85500
O24         O  0.21369858  0.46812494  0.29352781    -0.82600
C25         C  0.22816086  0.49192840  0.29755304     0.97900
O26         O  0.25229373  0.50152579  0.29675295    -0.82600
O27         O  0.30023188  0.50361608  0.29336777    -0.85200
C28         C  0.30796405  0.50096174  0.31896872     1.02500
O29         O  0.29517326  0.48032696  0.33360251    -0.78000
O30         O  0.25232335  0.43602584  0.35283835    -0.78200
C31         C  0.23739662  0.44362147  0.36279749     1.02400
O32         O  0.21700955  0.40580931  0.31328707    -0.85500
O33         O  0.21382743  0.42806780  0.25942212    -0.82600
C34         C  0.22018698  0.44474268  0.23882046     0.98000
O35         O  0.23580651  0.46828667  0.24409451    -0.82600
O36         O  0.28056546  0.46768562  0.24474248    -0.85200
C37         C  0.29635010  0.46079281  0.25246922     1.02400
O38         O  0.29804234  0.45543613  0.27970913    -0.78000
O39         O  0.25344352  0.41087602  0.29692774    -0.78200
C40         C  0.23025134  0.39620509  0.30429851     1.02400
Cr41       Cr  0.21988187  0.43920942  0.30232951     1.93700
Cr42       Cr  0.26632474  0.48339900  0.27187908     1.93200
Cr43       Cr  0.27315585  0.44634444  0.31429993     1.39100
O44         O  0.25343174  0.45650053  0.29628768    -1.23300
O45         O  0.53495351  0.45357187  0.18462758    -0.85500
O46         O  0.57594004  0.45168810  0.16181161    -0.82600
C47         C  0.58957890  0.44468871  0.14783322     0.97900
O48         O  0.58020569  0.42927123  0.12602872    -0.82600
O49         O  0.54199756  0.38382316  0.15460921    -0.85200
C50         C  0.52026648  0.36789631  0.16571760     1.02500
O51         O  0.50089000  0.37070663  0.16163910    -0.78000
O52         O  0.50946352  0.41241708  0.19361897    -0.78200
C53         C  0.52338516  0.43503736  0.20303653     1.02400
O54         O  0.52102482  0.45958584  0.12392031    -0.85500
O55         O  0.56331746  0.46000344  0.10027993    -0.82600
C56         C  0.55500937  0.44518441  0.07747511     0.98000
O57         O  0.54338295  0.42112071  0.08068146    -0.82600
O58         O  0.50966991  0.37421819  0.10439941    -0.85200
C59         C  0.48875408  0.37334174  0.09829760     1.02400
O60         O  0.48286665  0.38835557  0.11130962    -0.78000
O61         O  0.48767095  0.42865657  0.14719819    -0.78200
C62         C  0.49810419  0.44969787  0.13289642     1.02400
Cr63       Cr  0.54744299  0.45354589  0.14226495     1.93700
Cr64       Cr  0.54295349  0.40356630  0.11811055     1.93200
Cr65       Cr  0.49762051  0.40155909  0.15214772     1.39100
O66         O  0.52931289  0.41971901  0.13768045    -1.23300
O67         O  0.44616987  0.54271288  0.07265448    -0.85500
O68         O  0.44665989  0.58432366  0.09707584    -0.82600
C69         C  0.44019125  0.59791260  0.11206393     0.97900
O70         O  0.42601777  0.58883522  0.13516319    -0.82600
O71         O  0.37799975  0.55182242  0.11180555    -0.85200
C72         C  0.36156051  0.53085381  0.09979129     1.02500
O73         O  0.36426835  0.51126318  0.10100945    -0.78000
O74         O  0.40473613  0.52168723  0.06369522    -0.78200
C75         C  0.42759998  0.53450240  0.05427843     1.02400
O76         O  0.45321951  0.52763159  0.13172945    -0.85500
O77         O  0.45790916  0.57174091  0.15657733    -0.82600
C78         C  0.44482610  0.56378607  0.18073593     0.98000
O79         O  0.42061963  0.55158152  0.17980385    -0.82600
O80         O  0.37225807  0.51827592  0.16010097    -0.85200
C81         C  0.37097769  0.49674570  0.16248927     1.02400
O82         O  0.38381676  0.49062687  0.14528087    -0.78000
O83         O  0.42238174  0.49682537  0.10533075    -0.78200
C84         C  0.44307596  0.50553772  0.12018846     1.02400
Cr85       Cr  0.44835864  0.55530391  0.11508896     1.93700
Cr86       Cr  0.40047927  0.55174865  0.14482699     1.93200
Cr87       Cr  0.39536692  0.50741990  0.10514408     1.39100
O88         O  0.41472986  0.53813737  0.12160256    -1.23300
O89         O  0.22439440  0.12297205  0.01574472    -0.85500
O90         O  0.20249020  0.09080329  0.46484437    -0.82600
C91         C  0.17886910  0.08185792  0.47025672     0.97900
O92         O  0.16938891  0.09645016  0.46899468    -0.82600
O93         O  0.16740589  0.14206720  0.46282104    -0.85200
C94         C  0.17047770  0.15341877  0.48774479     1.02500
O95         O  0.19105557  0.16135427  0.50233486    -0.78000
O96         O  0.23492487  0.16358754  0.02158519    -0.78200
C97         C  0.23060301  0.14224397  0.03253068     1.02400
O98         O  0.26580928  0.15707405  0.47974194    -0.85500
O99         O  0.24138327  0.13019696  0.42764235    -0.82600
C100        C  0.22397929  0.11886937  0.40814957     0.98000
O101        O  0.20063932  0.11055055  0.41487646    -0.82600
O102        O  0.20192335  0.15646674  0.41348952    -0.85200
C103        C  0.20896521  0.17944614  0.42024957     1.02400
O104        O  0.21539063  0.18754490  0.44707852    -0.78000
O105        O  0.26038439  0.18843896  0.46472954    -0.78200
C106        C  0.27522863  0.18000090  0.47129519     1.02400
Cr107      Cr  0.23201265  0.12631657  0.47114915     1.93700
Cr108      Cr  0.18684864  0.12744379  0.44217510     1.93200
Cr109      Cr  0.22481663  0.17272200  0.48249424     1.39100
O110        O  0.21439953  0.14230809  0.46557236    -1.23300
O111        O  0.41826831  0.22984706  0.41010066    -0.85500
O112        O  0.45867387  0.22720679  0.43330905    -0.82600
C113        C  0.47956255  0.23356376  0.44637351     0.97900
O114        O  0.48675483  0.24912282  0.46832841    -0.82600
O115        O  0.49799082  0.29688189  0.44410461    -0.85200
C116        C  0.49398919  0.31389198  0.43289413     1.02500
O117        O  0.47216178  0.31218451  0.43553347    -0.78000
O118        O  0.44011596  0.27121476  0.40060486    -0.78200
C119        C  0.42868308  0.24830207  0.39138794     1.02400
O120        O  0.39841785  0.22555996  0.47098887    -0.85500
O121        O  0.43698297  0.21895659  0.49383708    -0.82600
C122        C  0.44070250  0.23125277  0.01701299     0.98000
O123        O  0.45600038  0.25504424  0.01462417    -0.82600
O124        O  0.47292118  0.30482485  0.49434387    -0.85200
C125        C  0.45261692  0.30570206  0.49922999     1.02400
O126        O  0.43335639  0.29409789  0.48214737    -0.78000
O127        O  0.39882912  0.25574061  0.44328130    -0.78200
C128        C  0.38665709  0.23589471  0.45956693     1.02400
Cr129      Cr  0.42953396  0.22804183  0.45248901     1.93700
Cr130      Cr  0.47665047  0.27571213  0.47868459     1.93200
Cr131      Cr  0.43685420  0.28175145  0.44168418     1.39100
O132        O  0.44772654  0.26179450  0.45750436    -1.23300
O133        O  0.57194725  0.13118583  0.41105106    -0.85500
O134        O  0.52745042  0.09124094  0.43238212    -0.82600
C135        C  0.51808352  0.10027750  0.45142318     0.97900
O136        O  0.50635163  0.11159344  0.44257955    -0.82600
O137        O  0.49787704  0.14483745  0.40806822    -0.85200
C138        C  0.51745909  0.16664396  0.41287612     1.02500
O139        O  0.53955082  0.17059391  0.40611648    -0.78000
O140        O  0.57817033  0.16264765  0.38101596    -0.78200
C141        C  0.58650352  0.15315024  0.40030687     1.02400
O142        O  0.55823876  0.11283619  0.34855769    -0.85500
O143        O  0.51302093  0.07354959  0.37018215    -0.82600
C144        C  0.49109332  0.06087956  0.38191497     0.98000
O145        O  0.48266560  0.07232778  0.39819864    -0.82600
O146        O  0.48091563  0.10868198  0.35948305    -0.85200
C147        C  0.48850486  0.12942012  0.34504053     1.02400
O148        O  0.50950979  0.14945600  0.35178703    -0.78000
O149        O  0.54474160  0.13823126  0.33142563    -0.78200
C150        C  0.55421988  0.12409834  0.32669887     1.02400
Cr151      Cr  0.54144602  0.10368765  0.39024489     1.93700
Cr152      Cr  0.49438256  0.11017256  0.40095093     1.93200
Cr153      Cr  0.54193660  0.15288056  0.36934147     1.39100
O154        O  0.52614249  0.12225690  0.38691310    -1.23300
O155        O  0.43928096  0.87462956  0.34576925    -0.85500
O156        O  0.44044065  0.91677238  0.32193369    -0.82600
C157        C  0.42258525  0.90794540  0.30255182     0.97900
O158        O  0.39941943  0.89834018  0.31077650    -0.82600
O159        O  0.35702033  0.86577714  0.34419729    -0.85200
C160        C  0.35449504  0.84351868  0.34294064     1.02500
O161        O  0.37102688  0.83911484  0.35477301    -0.78000
O162        O  0.41701304  0.84866506  0.38241550    -0.78200
C163        C  0.43263112  0.85454249  0.36071792     1.02400
O164        O  0.44726117  0.89652464  0.40634952    -0.85500
O165        O  0.44512881  0.93739346  0.38162168    -0.82600
C166        C  0.43506838  0.94965778  0.37085131     0.98000
O167        O  0.41452216  0.93824650  0.35565030    -0.82600
O168        O  0.37398443  0.90366689  0.39215695    -0.85200
C169        C  0.36017245  0.88365276  0.40749831     1.02400
O170        O  0.36144231  0.86358627  0.40333645    -0.78000
O171        O  0.40873941  0.87832447  0.42682532    -0.78200
C172        C  0.43284755  0.89015791  0.42955228     1.02400
Cr173      Cr  0.44030118  0.90498766  0.36432377     1.93700
Cr174      Cr  0.38775208  0.90072540  0.35203244     1.93200
Cr175      Cr  0.39091892  0.85971178  0.39000533     1.39100
O176        O  0.40638695  0.88861559  0.36867849    -1.23300
O177        O  0.20532697  0.12973253  0.21735223    -0.85500
O178        O  0.22629858  0.11775338  0.26564317    -0.82600
C179        C  0.23135977  0.10376842  0.28220551     0.97900
O180        O  0.23541831  0.08664666  0.27102435    -0.82600
O181        O  0.18921523  0.04656973  0.25216615    -0.85200
C182        C  0.16893563  0.03433860  0.23693940     1.02500
O183        O  0.16671887  0.04300858  0.21187274    -0.78000
O184        O  0.17099785  0.09152261  0.21990095    -0.78200
C185        C  0.18140562  0.11566356  0.22207239     1.02400
O186        O  0.24311049  0.12803261  0.17858165    -0.85500
O187        O  0.26682602  0.12261482  0.22939207    -0.82600
C188        C  0.27463547  0.10784024  0.22036407     0.98000
O189        O  0.25858512  0.08486240  0.21371274    -0.82600
O190        O  0.21191777  0.04293399  0.19646524    -0.85200
C191        C  0.20647263  0.04565294  0.16957767     1.02400
O192        O  0.20170291  0.06322759  0.16291217    -0.78000
O193        O  0.20238084  0.10893384  0.16612065    -0.78200
C194        C  0.22584522  0.12290631  0.15922977     1.02400
Cr195      Cr  0.23395095  0.12206262  0.22212821     1.93700
Cr196      Cr  0.22325682  0.06701795  0.23203815     1.93200
Cr197      Cr  0.18741917  0.07752428  0.19229958     1.39100
O198        O  0.21475298  0.08864924  0.21579782    -1.23300
O199        O  0.45428459  0.25381106  0.20814365    -0.85500
O200        O  0.43133975  0.22131490  0.15976973    -0.82600
C201        C  0.42619812  0.20278024  0.14218475     0.97900
O202        O  0.42145964  0.18111116  0.15248055    -0.82600
O203        O  0.46774307  0.18705827  0.16767986    -0.85200
C204        C  0.48917479  0.19541490  0.18027263     1.02500
O205        O  0.49289680  0.20561133  0.20613728    -0.78000
O206        O  0.48833314  0.24983560  0.20265635    -0.78200
C207        C  0.47812001  0.26377125  0.20272762     1.02400
O208        O  0.41796798  0.21427202  0.24786365    -0.85500
O209        O  0.39162630  0.18513960  0.19809845    -0.82600
C210        C  0.38451043  0.16251651  0.20654215     0.98000
O211        O  0.40068140  0.15524395  0.20985468    -0.82600
O212        O  0.44753389  0.15944324  0.22392714    -0.85200
C213        C  0.45346523  0.16738935  0.25090869     1.02400
O214        O  0.45967209  0.19008526  0.25777631    -0.78000
O215        O  0.45920944  0.23494578  0.25818170    -0.78200
C216        C  0.43609875  0.22658985  0.26623142     1.02400
Cr217      Cr  0.42520963  0.21750097  0.20373849     1.93700
Cr218      Cr  0.43502748  0.17302730  0.18996265     1.93200
Cr219      Cr  0.47290196  0.21889766  0.22921333     1.39100
O220        O  0.44439344  0.20300659  0.20747520    -1.23300
O221        O  0.08071666  0.88234394  0.03681142    -0.85500
O222        O  0.11278008  0.89376585  0.48615613    -0.82600
C223        C  0.13157027  0.90653950  0.46849816     0.97900
O224        O  0.15338162  0.92317603  0.47867780    -0.82600
O225        O  0.14866033  0.96468799  0.99696845    -0.85200
C226        C  0.13950751  0.97677978  0.01066232     1.02500
O227        O  0.12868408  0.96898461  0.03609117    -0.78000
O228        O  0.08449946  0.92018692  0.03208558    -0.78200
C229        C  0.07077925  0.89598873  0.03076364     1.02400
O230        O  0.12100343  0.88505061  0.07375767    -0.85500
O231        O  0.14874427  0.88914882  0.02191163    -0.82600
C232        C  0.17049434  0.90282704  0.03357882     0.98000
O233        O  0.17869707  0.92646525  0.03764780    -0.82600
O234        O  0.17559731  0.96997767  0.05187120    -0.85200
C235        C  0.16773188  0.96865646  0.07875080     1.02400
O236        O  0.14530407  0.95172290  0.08646250    -0.78000
O237        O  0.10063097  0.90540389  0.08678640    -0.78200
C238        C  0.10899592  0.89035542  0.09323304     1.02400
Cr239      Cr  0.11688419  0.89016574  0.03033297     1.93700
Cr240      Cr  0.16179210  0.94435407  0.01787764     1.93200
Cr241      Cr  0.11589652  0.93567812  0.05839049     1.39100
O242        O  0.13165113  0.92371837  0.03536384    -1.23300
O243        O  0.20682340  0.75598201  0.04503680    -0.85500
O244        O  0.21582548  0.78669320  0.09396202    -0.82600
C245        C  0.22921990  0.80412563  0.11267026     0.97900
O246        O  0.24510734  0.82686937  0.10384962    -0.82600
O247        O  0.28813619  0.82643510  0.08495507    -0.85200
C248        C  0.30128238  0.81896859  0.07058690     1.02500
O249        O  0.29352735  0.80801944  0.04537103    -0.78000
O250        O  0.24567251  0.76250287  0.05165670    -0.78200
C251        C  0.22158823  0.74762901  0.05251253     1.02400
O252        O  0.20791460  0.79564451  0.00734190    -0.85500
O253        O  0.20909717  0.82216864  0.05979404    -0.82600
C254        C  0.22319526  0.84543699  0.05267298     0.98000
O255        O  0.24680490  0.85410020  0.04792801    -0.82600
O256        O  0.29045170  0.85329673  0.02960921    -0.85200
C257        C  0.28878506  0.84524910  0.00265980     1.02400
O258        O  0.27361909  0.82204651  0.99596837    -0.78000
O259        O  0.22791168  0.77522325  0.49607935    -0.78200
C260        C  0.21311210  0.78350965  0.48826111     1.02400
Cr261      Cr  0.21247039  0.79154111  0.05109065     1.93700
Cr262      Cr  0.26596654  0.83784199  0.06509139     1.93200
Cr263      Cr  0.25954695  0.79313996  0.02433939     1.39100
O264        O  0.24627577  0.80783612  0.04695274    -1.23300
O265        O  0.19555230  0.78092278  0.34467903    -0.85500
O266        O  0.23791173  0.78164649  0.32110132    -0.82600
C267        C  0.25129999  0.77383478  0.30806324     0.97900
O268        O  0.24143246  0.75611718  0.28867758    -0.82600
O269        O  0.20226774  0.71062173  0.31581266    -0.85200
C270        C  0.18017443  0.69431116  0.32545419     1.02500
O271        O  0.16121962  0.69750514  0.32046047    -0.78000
O272        O  0.17244757  0.73945738  0.35446067    -0.78200
C273        C  0.18556467  0.76238360  0.36337276     1.02400
O274        O  0.18052456  0.78574448  0.28371448    -0.85500
O275        O  0.22367751  0.78796449  0.26026886    -0.82600
C276        C  0.21720398  0.77271691  0.23794962     0.98000
O277        O  0.20639315  0.74880760  0.24194117    -0.82600
O278        O  0.17059194  0.70277418  0.26381233    -0.85200
C279        C  0.15046774  0.70359721  0.25755540     1.02400
O280        O  0.14445167  0.71771505  0.27248644    -0.78000
O281        O  0.14964629  0.75668268  0.31136924    -0.78200
C282        C  0.15849950  0.77662290  0.29526506     1.02400
Cr283      Cr  0.20807088  0.78136539  0.30214477     1.93700
Cr284      Cr  0.20431438  0.73095745  0.27937530     1.93200
Cr285      Cr  0.15930495  0.72929464  0.31340419     1.39100
O286        O  0.19078332  0.74742267  0.29841177    -1.23300
O287        O  0.10898972  0.87033692  0.23550660    -0.85500
O288        O  0.11220644  0.91364355  0.25851748    -0.82600
C289        C  0.10643103  0.92841923  0.27200922     0.97900
O290        O  0.09104804  0.92013620  0.29408427    -0.82600
O291        O  0.04370748  0.88367675  0.26824025    -0.85200
C292        C  0.02594188  0.86223507  0.25881383     1.02500
O293        O  0.02718123  0.84193642  0.26229879    -0.78000
O294        O  0.06723907  0.84778630  0.22786264    -0.78200
C295        C  0.08990150  0.86013369  0.21773211     1.02400
O296        O  0.11514067  0.85567350  0.29546168    -0.85500
O297        O  0.11994280  0.89956001  0.31973570    -0.82600
C298        C  0.10525952  0.89258496  0.34278412     0.98000
O299        O  0.08141533  0.88333345  0.34006028    -0.82600
O300        O  0.03358125  0.85162392  0.31921312    -0.85200
C301        C  0.03089473  0.82982704  0.32494403     1.02400
O302        O  0.04439400  0.82233675  0.31117698    -0.78000
O303        O  0.08237752  0.82382096  0.27266641    -0.78200
C304        C  0.10391777  0.83303398  0.28564121     1.02400
Cr305      Cr  0.11135216  0.88363732  0.27783621     1.93700
Cr306      Cr  0.06376008  0.88366854  0.30361509     1.93200
Cr307      Cr  0.05702122  0.83635061  0.26975368     1.39100
O308        O  0.07754087  0.86786688  0.28359949    -1.23300
O309        O  0.89144018  0.45112928  0.17585712    -0.85500
O310        O  0.87039432  0.42066102  0.12597657    -0.82600
C311        C  0.84703446  0.41168931  0.13301513     0.97900
O312        O  0.83773899  0.42643884  0.13340522    -0.82600
O313        O  0.83486435  0.47148252  0.13021086    -0.85200
C314        C  0.83860025  0.48239484  0.15557964     1.02500
O315        O  0.86000116  0.49099838  0.16857698    -0.78000
O316        O  0.90467614  0.49209061  0.18465670    -0.78200
C317        C  0.89759228  0.46946839  0.19401863     1.02400
O318        O  0.93367717  0.48712892  0.14181465    -0.85500
O319        O  0.90902109  0.46090362  0.08950413    -0.82600
C320        C  0.89120809  0.45108231  0.07025767     0.98000
O321        O  0.86797012  0.44221740  0.07816047    -0.82600
O322        O  0.86813121  0.48705047  0.07918590    -0.85200
C323        C  0.87606792  0.51013665  0.08612611     1.02400
O324        O  0.88290899  0.51805742  0.11295132    -0.78000
O325        O  0.92795405  0.51852041  0.12773363    -0.78200
C326        C  0.94282402  0.50980456  0.13240434     1.02400
Cr327      Cr  0.89992338  0.45623987  0.13295445     1.93700
Cr328      Cr  0.85414461  0.45779407  0.10716913     1.93200
Cr329      Cr  0.89315893  0.50262215  0.14706634     1.39100
O330        O  0.88233471  0.47246834  0.12915658    -1.23300
O331        O  0.10631476  0.56057575  0.07344408    -0.85500
O332        O  0.12528719  0.55059282  0.12474142    -0.82600
C333        C  0.14867412  0.56448965  0.11783615     0.97900
O334        O  0.15854053  0.58865957  0.11761552    -0.82600
O335        O  0.16159170  0.63701352  0.11984846    -0.85200
C336        C  0.15799483  0.64410511  0.09434661     1.02500
O337        O  0.13678454  0.63112412  0.08104926    -0.78000
O338        O  0.09288141  0.58789041  0.06368833    -0.78200
C339        C  0.10108983  0.57316030  0.05474328     1.02400
O340        O  0.06300127  0.55386014  0.10577204    -0.85500
O341        O  0.08642906  0.55239301  0.15976334    -0.82600
C342        C  0.10398313  0.55887324  0.17926238     0.98000
O343        O  0.12728819  0.57455218  0.17247010    -0.82600
O344        O  0.12725884  0.61941894  0.17005988    -0.85200
C345        C  0.11903590  0.63418030  0.16242580     1.02400
O346        O  0.11279683  0.63523918  0.13538237    -0.78000
O347        O  0.06817878  0.59064178  0.12015131    -0.78200
C348        C  0.05352227  0.56702895  0.11528783     1.02400
Cr349      Cr  0.09639498  0.55683940  0.11624775     1.93700
Cr350      Cr  0.14174653  0.60397005  0.14300018     1.93200
Cr351      Cr  0.10334164  0.60966727  0.10155892     1.39100
O352        O  0.11393755  0.59051985  0.12024515    -1.23300
O353        O  0.80125150  0.58425452  0.40515067    -0.85500
O354        O  0.75831681  0.54325738  0.42763405    -0.82600
C355        C  0.74359486  0.52299281  0.44172265     0.97900
O356        O  0.75185087  0.51633605  0.46422707    -0.82600
O357        O  0.78831246  0.50476087  0.43977703    -0.85200
C358        C  0.80936508  0.50882489  0.42833583     1.02500
O359        O  0.82950187  0.53073616  0.43041689    -0.78000
O360        O  0.82133169  0.56305430  0.39543932    -0.78200
C361        C  0.80959211  0.57419848  0.38637031     1.02400
O362        O  0.81566232  0.60381132  0.46562124    -0.85500
O363        O  0.77042776  0.56458696  0.48840736    -0.82600
C364        C  0.77643868  0.55623523  0.01218761     0.98000
O365        O  0.78818710  0.54385953  0.01049696    -0.82600
O366        O  0.82135276  0.52958232  0.48918556    -0.85200
C367        C  0.84341172  0.54909332  0.49249769     1.02400
O368        O  0.85040078  0.56916598  0.47707509    -0.78000
O369        O  0.84640327  0.60394122  0.43880154    -0.78200
C370        C  0.83776643  0.61583944  0.45402878     1.02400
Cr371      Cr  0.78763451  0.57258679  0.44719127     1.93700
Cr372      Cr  0.78858575  0.52620870  0.47416545     1.93200
Cr373      Cr  0.83460606  0.56603369  0.43677548     1.39100
O374        O  0.80362869  0.55495811  0.45262262    -1.23300
O375        O  0.88450900  0.75725374  0.01173502    -0.85500
O376        O  0.88053182  0.79758565  0.48961829    -0.82600
C377        C  0.88572790  0.81774004  0.47557551     0.97900
O378        O  0.90214279  0.82581834  0.45445965    -0.82600
O379        O  0.95051626  0.83785820  0.47950893    -0.85200
C380        C  0.96786841  0.83388345  0.48984635     1.02500
O381        O  0.96677170  0.81252278  0.48547115    -0.78000
O382        O  0.92615084  0.77746496  0.01966023    -0.78200
C383        C  0.90343442  0.76737450  0.02973247     1.02400
O384        O  0.88056110  0.73853001  0.45137944    -0.85500
O385        O  0.87321283  0.77655457  0.42892356    -0.82600
C386        C  0.88731025  0.78440742  0.40551651     0.98000
O387        O  0.91130226  0.79858610  0.40769452    -0.82600
O388        O  0.95934244  0.81455958  0.42822671    -0.85200
C389        C  0.96007985  0.79449977  0.42153412     1.02400
O390        O  0.94880203  0.77468542  0.43802802    -0.78000
O391        O  0.91146531  0.73911633  0.47774704    -0.78200
C392        C  0.89106126  0.72689369  0.46254195     1.02400
Cr393      Cr  0.88255898  0.76917281  0.47013176     1.93700
Cr394      Cr  0.92969473  0.81707626  0.44431714     1.93200
Cr395      Cr  0.93685984  0.77716771  0.47945177     1.39100
O396        O  0.91627566  0.78783418  0.46483918    -1.23300
O397        O  0.90879286  0.80320470  0.23819561    -0.85500
O398        O  0.86713625  0.76166192  0.26241692    -0.82600
C399        C  0.85685278  0.77032761  0.28046348     0.97900
O400        O  0.84344309  0.77940374  0.27046760    -0.82600
O401        O  0.83485289  0.81086495  0.23490704    -0.85200
C402        C  0.85466663  0.83294307  0.23764227     1.02500
O403        O  0.87599148  0.83786474  0.22614139    -0.78000
O404        O  0.91326370  0.82815333  0.20025259    -0.78200
C405        C  0.92254812  0.82304772  0.22291344     1.02400
O406        O  0.89589683  0.77958404  0.17789035    -0.85500
O407        O  0.85269336  0.73939492  0.20287445    -0.82600
C408        C  0.82997969  0.72699501  0.21276754     0.98000
O409        O  0.82029747  0.73855527  0.22667800    -0.82600
O410        O  0.81538734  0.77257947  0.18768685    -0.85200
C411        C  0.82176767  0.79278097  0.17270943     1.02400
O412        O  0.84324728  0.81272088  0.17692236    -0.78000
O413        O  0.87609104  0.79751908  0.15577567    -0.78200
C414        C  0.88781140  0.78508703  0.15413646     1.02400
Cr415      Cr  0.87979503  0.77226463  0.21982709     1.93700
Cr416      Cr  0.83086131  0.77608421  0.22860143     1.93200
Cr417      Cr  0.87623966  0.81686030  0.19159679     1.39100
O418        O  0.86223673  0.78825759  0.21346874    -1.23300
O419        O  0.77834673  0.53959756  0.17965083    -0.85500
O420        O  0.77779703  0.58045212  0.15451517    -0.82600
C421        C  0.75881710  0.57119931  0.13662986     0.97900
O422        O  0.73621739  0.56177861  0.14677619    -0.82600
O423        O  0.69597500  0.53068052  0.18366357    -0.85200
C424        C  0.69362180  0.50851791  0.18262088     1.02500
O425        O  0.71086322  0.50454350  0.19311278    -0.78000
O426        O  0.75831192  0.51515622  0.21822464    -0.78200
C427        C  0.77274000  0.52015424  0.19540303     1.02400
O428        O  0.78928144  0.56428786  0.23916118    -0.85500
O429        O  0.78585803  0.60377214  0.21308407    -0.82600
C430        C  0.77522448  0.61561863  0.20274619     0.98000
O431        O  0.75373126  0.60355581  0.18946369    -0.82600
O432        O  0.71490733  0.57022106  0.22933877    -0.85200
C433        C  0.70139040  0.55052913  0.24536517     1.02400
O434        O  0.70319055  0.53061787  0.24201999    -0.78000
O435        O  0.75166054  0.54654367  0.26193236    -0.78200
C436        C  0.77583770  0.55912874  0.26309516     1.02400
Cr437      Cr  0.78012448  0.57066748  0.19720731     1.93700
Cr438      Cr  0.72687964  0.56586811  0.18856111     1.93200
Cr439      Cr  0.73226839  0.52638593  0.22688813     1.39100
O440        O  0.74650332  0.55448833  0.20414799    -1.23300
O441        O  0.54440077  0.42450579  0.38531042    -0.85500
O442        O  0.55626540  0.45655050  0.43455696    -0.82600
C443        C  0.56955711  0.47537640  0.45181993     0.97900
O444        O  0.58594059  0.49726254  0.44104412    -0.82600
O445        O  0.62747560  0.49455827  0.42004318    -0.85200
C446        C  0.63941485  0.48598681  0.40505332     1.02500
O447        O  0.63083012  0.47506305  0.37998283    -0.78000
O448        O  0.58317201  0.42999911  0.38779159    -0.78200
C449        C  0.55911154  0.41549770  0.39004516     1.02400
O450        O  0.54452867  0.46406212  0.34836269    -0.85500
O451        O  0.54874540  0.49171642  0.40056809    -0.82600
C452        C  0.56235920  0.51422893  0.39059138     0.98000
O453        O  0.58555000  0.52217711  0.38370545    -0.82600
O454        O  0.62896796  0.52068886  0.36448353    -0.85200
C455        C  0.62623343  0.51228097  0.33757720     1.02400
O456        O  0.60977039  0.48928875  0.33166035    -0.78000
O457        O  0.56484062  0.44388147  0.33459734    -0.78200
C458        C  0.54995496  0.45245325  0.32848507     1.02400
Cr459      Cr  0.55102636  0.46040539  0.39156551     1.93700
Cr460      Cr  0.60528748  0.50639146  0.40103639     1.93200
Cr461      Cr  0.59629275  0.46065206  0.36064301     1.39100
O462        O  0.58450745  0.47595820  0.38470109    -1.23300
O463        O  0.42688560  0.56145068  0.34534020    -0.85500
O464        O  0.47079803  0.56474286  0.32320716    -0.82600
C465        C  0.47896595  0.58315265  0.30438835     0.97900
O466        O  0.49068257  0.60610835  0.31357916    -0.82600
O467        O  0.49914241  0.64691419  0.34984971    -0.85200
C468        C  0.47920047  0.64903802  0.34794112     1.02500
O469        O  0.45765246  0.63111775  0.35708713    -0.78000
O470        O  0.42045322  0.58289366  0.38089253    -0.78200
C471        C  0.41215928  0.56734914  0.35889291     1.02400
O472        O  0.43942707  0.55308071  0.40643369    -0.85500
O473        O  0.48487560  0.55979715  0.38457574    -0.82600
C474        C  0.50728204  0.57001249  0.37387541     0.98000
O475        O  0.51536751  0.58965864  0.35705948    -0.82600
O476        O  0.51858412  0.62763632  0.39617199    -0.85200
C477        C  0.51130051  0.64014164  0.41227720     1.02400
O478        O  0.48983438  0.63869527  0.40779089    -0.78000
O479        O  0.45699271  0.59099033  0.42784468    -0.78200
C480        C  0.44640801  0.56697478  0.42997206     1.02400
Cr481      Cr  0.45669860  0.56234566  0.36524286     1.93700
Cr482      Cr  0.50361441  0.61599647  0.35527057     1.93200
Cr483      Cr  0.45714469  0.60970634  0.39157818     1.39100
O484        O  0.47237184  0.59600078  0.37047234    -1.23300
O485        O  0.53617799  0.79503225  0.04591697    -0.85500
O486        O  0.55629576  0.78474795  0.09624222    -0.82600
C487        C  0.56158734  0.77199224  0.11459475     0.97900
O488        O  0.56751508  0.75562823  0.10517747    -0.82600
O489        O  0.52315102  0.71405449  0.08622596    -0.85200
C490        C  0.50256750  0.70126001  0.07178540     1.02500
O491        O  0.50009946  0.70851799  0.04589112    -0.78000
O492        O  0.50288286  0.75644110  0.05031951    -0.78200
C493        C  0.51247483  0.78054104  0.05153512     1.02400
O494        O  0.57561357  0.79362615  0.00982474    -0.85500
O495        O  0.59908901  0.79094369  0.06272972    -0.82600
C496        C  0.60812469  0.77676554  0.05532561     0.98000
O497        O  0.59288096  0.75337431  0.04960603    -0.82600
O498        O  0.54757836  0.70986536  0.03191414    -0.85200
C499        C  0.54224873  0.71167637  0.00462440     1.02400
O500        O  0.53552079  0.72763158  0.99694314    -0.78000
O501        O  0.53103300  0.77104208  0.49444231    -0.78200
C502        C  0.55435575  0.78684602  0.48829939     1.02400
Cr503      Cr  0.56551794  0.78856373  0.05319281     1.93700
Cr504      Cr  0.55712440  0.73484961  0.06666416     1.93200
Cr505      Cr  0.52034404  0.74223551  0.02445320     1.39100
O506        O  0.54762978  0.75496457  0.04821333    -1.23300
O507        O  0.78904329  0.92052110  0.03633354    -0.85500
O508        O  0.76211515  0.88332251  0.48968082    -0.82600
C509        C  0.75637695  0.86446284  0.47244041     0.97900
O510        O  0.74937543  0.84222960  0.48288737    -0.82600
O511        O  0.80217774  0.85062297  0.99935753    -0.85200
C512        C  0.82345967  0.85955350  0.01278456     1.02500
O513        O  0.82723655  0.87178343  0.03722109    -0.78000
O514        O  0.82274366  0.91604855  0.03040796    -0.78200
C515        C  0.81249060  0.92995537  0.02934851     1.02400
O516        O  0.75291373  0.88137655  0.07662632    -0.85500
O517        O  0.72642780  0.85219526  0.02755483    -0.82600
C518        C  0.71877748  0.83025866  0.03857430     0.98000
O519        O  0.73452339  0.82240141  0.04210844    -0.82600
O520        O  0.78104531  0.82594256  0.05646510    -0.85200
C521        C  0.78803655  0.83490325  0.08286466     1.02400
O522        O  0.79504239  0.85804755  0.08864386    -0.78000
O523        O  0.79411898  0.90285678  0.08680744    -0.78200
C524        C  0.77092301  0.89328151  0.09514778     1.02400
Cr525      Cr  0.76004576  0.88416585  0.03277666     1.93700
Cr526      Cr  0.76907777  0.83875224  0.02155477     1.93200
Cr527      Cr  0.80772126  0.88605528  0.05876674     1.39100
O528        O  0.77912062  0.86953409  0.03732899    -1.23300
O529        O  0.87323874  0.08665096  0.21383502    -0.85500
O530        O  0.88426896  0.11810173  0.26348113    -0.82600
C531        C  0.89718947  0.13694414  0.28089668     0.97900
O532        O  0.91249822  0.15935450  0.27054080    -0.82600
O533        O  0.95661575  0.16053597  0.25100271    -0.85200
C534        C  0.96896933  0.15159887  0.23756622     1.02500
O535        O  0.96004797  0.13823230  0.21395126    -0.78000
O536        O  0.91171102  0.09253595  0.22057005    -0.78200
C537        C  0.88757660  0.07777198  0.22094247     1.02400
O538        O  0.87428666  0.12637273  0.17714563    -0.85500
O539        O  0.87554784  0.15228749  0.23018506    -0.82600
C540        C  0.88827513  0.17493722  0.22060915     0.98000
O541        O  0.91147288  0.18369976  0.21331016    -0.82600
O542        O  0.95579091  0.18441190  0.19474845    -0.85200
C543        C  0.95454536  0.17516446  0.16859541     1.02400
O544        O  0.94049728  0.15146243  0.16354912    -0.78000
O545        O  0.89552550  0.10663956  0.16501883    -0.78200
C546        C  0.88097985  0.11541468  0.15769812     1.02400
Cr547      Cr  0.87940555  0.12216900  0.22059691     1.93700
Cr548      Cr  0.93247321  0.16955870  0.23111327     1.93200
Cr549      Cr  0.92598579  0.12323598  0.19289961     1.39100
O550        O  0.91308592  0.13859021  0.21509028    -1.23300
O551        O  0.75209223  0.22163999  0.17943459    -0.85500
O552        O  0.79486856  0.22278477  0.15724582    -0.82600
C553        C  0.80412701  0.24084957  0.13790667     0.97900
O554        O  0.81646780  0.26397969  0.14621730    -0.82600
O555        O  0.82590121  0.30632248  0.17805235    -0.85200
C556        C  0.80627343  0.30861849  0.17387574     1.02500
O557        O  0.78464300  0.29218620  0.18465664    -0.78000
O558        O  0.74691905  0.24593464  0.21217382    -0.78200
C559        C  0.73803257  0.22900292  0.19170880     1.02400
O560        O  0.76593231  0.21651172  0.24126025    -0.85500
O561        O  0.80999510  0.22044104  0.21914387    -0.82600
C562        C  0.83213568  0.22979744  0.20794155     0.98000
O563        O  0.84059912  0.24918706  0.19086249    -0.82600
O564        O  0.84457476  0.28875400  0.22730620    -0.85200
C565        C  0.83825583  0.30309545  0.24110669     1.02400
O566        O  0.81712273  0.30211154  0.23558472    -0.78000
O567        O  0.78329695  0.25572073  0.25917981    -0.78200
C568        C  0.77327864  0.23192680  0.26348025     1.02400
Cr569      Cr  0.78194984  0.22297198  0.19949157     1.93700
Cr570      Cr  0.82954352  0.27557486  0.18693126     1.93200
Cr571      Cr  0.78384203  0.27258270  0.22125752     1.39100
O572        O  0.79826591  0.25692331  0.20233528    -1.23300
O573        O  0.11046620  0.21152134  0.01561880    -0.85500
O574        O  0.10986233  0.25405278  0.49051689    -0.82600
C575        C  0.09182829  0.24407901  0.47125191     0.97900
O576        O  0.06868333  0.23362161  0.47973078    -0.82600
O577        O  0.02671947  0.19947204  0.01606635    -0.85200
C578        C  0.02497433  0.17763257  0.01387215     1.02500
O579        O  0.04172026  0.17344796  0.02557880    -0.78000
O580        O  0.08899795  0.18477810  0.05204786    -0.78200
C581        C  0.10440461  0.19128288  0.02994084     1.02400
O582        O  0.11810292  0.23351956  0.07605372    -0.85500
O583        O  0.11303884  0.27244583  0.05197563    -0.82600
C584        C  0.10299854  0.28449846  0.04063588     0.98000
O585        O  0.08298685  0.27261555  0.02460232    -0.82600
O586        O  0.04318133  0.23762093  0.06276957    -0.85200
C587        C  0.02946475  0.21729052  0.07772126     1.02400
O588        O  0.03210000  0.19786328  0.07438995    -0.78000
O589        O  0.07979599  0.21382375  0.09700586    -0.78200
C590        C  0.10388130  0.22702467  0.09940600     1.02400
Cr591      Cr  0.11005091  0.24101758  0.03420322     1.93700
Cr592      Cr  0.05679197  0.23464122  0.02260013     1.93200
Cr593      Cr  0.06193720  0.19468084  0.06050944     1.39100
O594        O  0.07628491  0.22348627  0.03903814    -1.23300
O595        O  0.25107552  0.47077814  0.04946013    -0.85500
O596        O  0.21774308  0.44479528  0.09642801    -0.82600
C597        C  0.19814428  0.43765969  0.11304897     0.97900
O598        O  0.17660766  0.43276598  0.10214652    -0.82600
O599        O  0.17750640  0.47701679  0.08660587    -0.85200
C600        C  0.18635573  0.49904120  0.07518790     1.02500
O601        O  0.19862422  0.50443163  0.05058210    -0.78000
O602        O  0.24447457  0.50297713  0.05658881    -0.78200
C603        C  0.25943209  0.49388664  0.05704987     1.02400
O604        O  0.21454068  0.43444812  0.00795093    -0.85500
O605        O  0.18531656  0.40530589  0.05726908    -0.82600
C606        C  0.16217562  0.39593298  0.04964651     0.98000
O607        O  0.15356303  0.41074269  0.04399049    -0.82600
O608        O  0.15380807  0.45550212  0.02920029    -0.85200
C609        C  0.16300373  0.46338094  0.00303554     1.02400
O610        O  0.18675489  0.47327248  0.99783112    -0.78000
O611        O  0.23477985  0.47607843  0.50063666    -0.78200
C612        C  0.22635553  0.45363132  0.49052462     1.02400
Cr613      Cr  0.21585649  0.44017894  0.05230840     1.93700
Cr614      Cr  0.16793336  0.44501211  0.06410064     1.93200
Cr615      Cr  0.21450029  0.48688084  0.02809027     1.39100
O616        O  0.19923204  0.45742196  0.04842865    -1.23300
O617        O  0.86836620  0.45710217  0.37743771    -0.85500
O618        O  0.89099767  0.44789127  0.42619542    -0.82600
C619        C  0.89755160  0.43543109  0.44342395     0.97900
O620        O  0.90536364  0.42076238  0.43302479    -0.82600
O621        O  0.86203132  0.37577294  0.41801719    -0.85200
C622        C  0.83927302  0.36349093  0.40828373     1.02500
O623        O  0.83294501  0.37107898  0.38498188    -0.78000
O624        O  0.83627891  0.41913320  0.38781785    -0.78200
C625        C  0.84544024  0.44309829  0.38610848     1.02400
O626        O  0.90528138  0.45510657  0.33912122    -0.85500
O627        O  0.93284623  0.45590468  0.39036622    -0.82600
C628        C  0.94240313  0.44281510  0.38081564     0.98000
O629        O  0.92760968  0.41962687  0.37411629    -0.82600
O630        O  0.88367796  0.37433328  0.36043946    -0.85200
C631        C  0.87369500  0.37415499  0.33523799     1.02400
O632        O  0.86264096  0.38695487  0.33095441    -0.78000
O633        O  0.86372790  0.43188373  0.32993772    -0.78200
C634        C  0.88666878  0.44650182  0.32083075     1.02400
Cr635      Cr  0.89813368  0.45141807  0.38294432     1.93700
Cr636      Cr  0.89371786  0.39916007  0.39510627     1.93200
Cr637      Cr  0.85107137  0.40332187  0.36026701     1.39100
O638        O  0.88079817  0.41749490  0.37953700    -1.23300
O639        O  0.12432872  0.57632853  0.34793625    -0.85500
O640        O  0.08450442  0.53367644  0.32324771    -0.82600
C641        C  0.09420100  0.52583013  0.30323413     0.97900
O642        O  0.10525714  0.51351527  0.31066144    -0.82600
O643        O  0.13929865  0.50493407  0.34148073    -0.85200
C644        C  0.16068544  0.52551092  0.33768384     1.02500
O645        O  0.16447476  0.54634593  0.34907157    -0.78000
O646        O  0.15458350  0.58137881  0.37921612    -0.78200
C647        C  0.14527974  0.59060436  0.36092976     1.02400
O648        O  0.10518686  0.55914242  0.40862794    -0.85500
O649        O  0.06632951  0.51537856  0.38455185    -0.82600
C650        C  0.05397401  0.49406905  0.37153498     0.98000
O651        O  0.06580796  0.48656068  0.35444973    -0.82600
O652        O  0.10267956  0.48334762  0.39097937    -0.85200
C653        C  0.12342329  0.49064975  0.40523062     1.02400
O654        O  0.14328696  0.51179666  0.39888075    -0.78000
O655        O  0.12903198  0.54347038  0.42484786    -0.78200
C656        C  0.11499711  0.55302823  0.43016348     1.02400
Cr657      Cr  0.09652954  0.54489309  0.36618910     1.93700
Cr658      Cr  0.10396704  0.49922925  0.35086590     1.93200
Cr659      Cr  0.14550103  0.54473406  0.38630263     1.39100
O660        O  0.11534636  0.52981639  0.36759428    -1.23300
O661        O  0.76752639  0.88950506  0.23885629    -0.85500
O662        O  0.79106181  0.87990164  0.28666422    -0.82600
C663        C  0.81453861  0.89466852  0.28027892     0.97900
O664        O  0.82391546  0.91870655  0.28099235    -0.82600
O665        O  0.82695934  0.96653279  0.28693476    -0.85200
C666        C  0.82270527  0.97367241  0.26182278     1.02500
O667        O  0.80107451  0.96061569  0.24941410    -0.78000
O668        O  0.75552550  0.91853660  0.23386025    -0.78200
C669        C  0.76130838  0.90270699  0.22241481     1.02400
O670        O  0.72711325  0.88322197  0.27702675    -0.85500
O671        O  0.75382853  0.88069853  0.32681118    -0.82600
C672        C  0.77202658  0.88789940  0.34546617     0.98000
O673        O  0.79502192  0.90250759  0.33684265    -0.82600
O674        O  0.79429682  0.94702960  0.33881150    -0.85200
C675        C  0.78730155  0.96300757  0.33259890     1.02400
O676        O  0.78022704  0.96463447  0.30618542    -0.78000
O677        O  0.73405033  0.92063395  0.29214930    -0.78200
C678        C  0.71852900  0.89736237  0.28616669     1.02400
Cr679      Cr  0.76121168  0.88581890  0.28278964     1.93700
Cr680      Cr  0.80794838  0.93272129  0.30899827     1.93200
Cr681      Cr  0.76844619  0.93947249  0.27176419     1.39100
O682        O  0.77928355  0.91956547  0.28764916    -1.23300
O683        O  0.57637389  0.81143015  0.34580721    -0.85500
O684        O  0.53490455  0.76785969  0.32499698    -0.82600
C685        C  0.51410082  0.75301969  0.31196384     0.97900
O686        O  0.50658645  0.76127227  0.29023238    -0.82600
O687        O  0.49655259  0.79841139  0.31523255    -0.85200
C688        C  0.50066566  0.81980491  0.32526145     1.02500
O689        O  0.52244610  0.83994756  0.32184059    -0.78000
O690        O  0.55546622  0.83184069  0.35577888    -0.78200
C691        C  0.56654845  0.81994005  0.36468932     1.02400
O692        O  0.59411414  0.82521981  0.28417177    -0.85500
O693        O  0.55467682  0.77999575  0.26315542    -0.82600
C694        C  0.54742580  0.78707379  0.24002742     0.98000
O695        O  0.53406958  0.79767651  0.24278869    -0.82600
O696        O  0.51961367  0.83057920  0.26390252    -0.85200
C697        C  0.53989701  0.85136080  0.25737312     1.02400
O698        O  0.55984062  0.85935396  0.27339515    -0.78000
O699        O  0.59561197  0.85615767  0.31139341    -0.78200
C700        C  0.60693300  0.84728301  0.29542411     1.02400
Cr701      Cr  0.56363911  0.79733073  0.30417983     1.93700
Cr702      Cr  0.51636183  0.79794001  0.27975082     1.93200
Cr703      Cr  0.55759830  0.84461995  0.31440418     1.39100
O704        O  0.54585433  0.81324661  0.29961894    -1.23300
O705        O  0.55064003  0.11318565  0.18231029    -0.85500
O706        O  0.53848505  0.13285468  0.13301358    -0.82600
C707        C  0.55320641  0.15649413  0.13816923     0.97900
O708        O  0.57727739  0.16605008  0.13614217    -0.82600
O709        O  0.62490776  0.16827634  0.12958027    -0.85200
C710        C  0.63289986  0.16548106  0.15487597     1.02500
O711        O  0.62008805  0.14502320  0.16974250    -0.78000
O712        O  0.57840526  0.09985973  0.18868576    -0.78200
C713        C  0.56405629  0.10782455  0.19954718     1.02400
O714        O  0.54273399  0.07012098  0.14787132    -0.85500
O715        O  0.53830877  0.09365128  0.09593116    -0.82600
C716        C  0.54410874  0.11088090  0.07615490     0.98000
O717        O  0.55959080  0.13426362  0.08240034    -0.82600
O718        O  0.60454543  0.13357210  0.08033115    -0.85200
C719        C  0.62126487  0.12774214  0.08749445     1.02400
O720        O  0.62319430  0.12189011  0.11446714    -0.78000
O721        O  0.57950978  0.07642624  0.13095778    -0.78200
C722        C  0.55632826  0.06122536  0.13782522     1.02400
Cr723      Cr  0.54490548  0.10361764  0.13929123     1.93700
Cr724      Cr  0.59066950  0.14863132  0.10912389     1.93200
Cr725      Cr  0.59864413  0.11137523  0.14960331     1.39100
O726        O  0.57832845  0.12129970  0.13272494    -1.23300
O727        O  0.46397838  0.91947198  0.07096644    -0.85500
O728        O  0.42069790  0.87920766  0.09414423    -0.82600
C729        C  0.40626819  0.85860046  0.10785498     0.97900
O730        O  0.41497191  0.85123855  0.12924556    -0.82600
O731        O  0.45166271  0.83984568  0.10384940    -0.85200
C732        C  0.47294562  0.84411823  0.09277066     1.02500
O733        O  0.49288683  0.86611262  0.09526683    -0.78000
O734        O  0.48389107  0.89815527  0.06065923    -0.78200
C735        C  0.47156806  0.90884515  0.05197945     1.02400
O736        O  0.47965513  0.93880158  0.13192607    -0.85500
O737        O  0.43459638  0.90029343  0.15489032    -0.82600
C738        C  0.44168571  0.89319885  0.17813372     0.98000
O739        O  0.45222577  0.87972684  0.17545752    -0.82600
O740        O  0.48458616  0.86446945  0.15348628    -0.85200
C741        C  0.50636985  0.88418124  0.15771325     1.02400
O742        O  0.51341773  0.90434501  0.14234714    -0.78000
O743        O  0.50960097  0.93916013  0.10363172    -0.78200
C744        C  0.50185042  0.95083155  0.12060553     1.02400
Cr745      Cr  0.45097402  0.90806958  0.11330425     1.93700
Cr746      Cr  0.45175149  0.86100209  0.13873267     1.93200
Cr747      Cr  0.49763859  0.90124173  0.10178101     1.39100
O748        O  0.46664851  0.88999433  0.11769886    -1.23300
O749        O  0.87986080  0.11851340  0.01446174    -0.85500
O750        O  0.91148202  0.12467559  0.46773777    -0.82600
C751        C  0.92168126  0.11114841  0.47339919     0.97900
O752        O  0.90800923  0.08687367  0.47331942    -0.82600
O753        O  0.86336430  0.03767730  0.46877772    -0.85200
C754        C  0.85187503  0.03033946  0.49383931     1.02500
O755        O  0.84352560  0.04342526  0.50673526    -0.78000
O756        O  0.83920524  0.08783415  0.01936895    -0.78200
C757        C  0.86049505  0.10455397  0.03080030     1.02400
O758        O  0.84270565  0.11841400  0.47451622    -0.85500
O759        O  0.87339423  0.12128607  0.42616773    -0.82600
C760        C  0.88491463  0.11411127  0.40815224     0.98000
O761        O  0.89392221  0.10040932  0.41752466    -0.82600
O762        O  0.84878550  0.05501956  0.41690449    -0.85200
C763        C  0.82600233  0.03853325  0.42381635     1.02400
O764        O  0.81762904  0.03687142  0.45046551    -0.78000
O765        O  0.81286381  0.07932123  0.46313639    -0.78200
C766        C  0.82029714  0.10292773  0.46536380     1.02400
Cr767      Cr  0.87520331  0.11732810  0.47061111     1.93700
Cr768      Cr  0.87725237  0.07093589  0.44614478     1.93200
Cr769      Cr  0.83034204  0.06277827  0.48400117     1.39100
O770        O  0.86083482  0.08351993  0.46717697    -1.23300
O771        O  0.77536667  0.21900506  0.40754637    -0.85500
O772        O  0.78835911  0.24954366  0.45789413    -0.82600
C773        C  0.77502637  0.25992660  0.45242785     0.97900
O774        O  0.75074011  0.24642521  0.45378124    -0.82600
O775        O  0.70103673  0.20245094  0.45974971    -0.85200
C776        C  0.69200939  0.19119816  0.43491764     1.02500
O777        O  0.70390303  0.18269517  0.41969415    -0.78000
O778        O  0.74498808  0.17901697  0.39883852    -0.78200
C779        C  0.76157404  0.20128554  0.38923776     1.02400
O780        O  0.78036948  0.18155851  0.43950213    -0.85500
O781        O  0.78510249  0.20801433  0.49306640    -0.82600
C782        C  0.77556378  0.22129556  0.01298629     0.98000
O783        O  0.76134149  0.23034901  0.00549391    -0.82600
O784        O  0.71540826  0.18574409  0.00485842    -0.85200
C785        C  0.70186447  0.16314004  0.50075074     1.02400
O786        O  0.70038238  0.15507366  0.47386641    -0.78000
O787        O  0.74294801  0.15122194  0.45464614    -0.78200
C788        C  0.76605025  0.15866085  0.44773046     1.02400
Cr789      Cr  0.77969052  0.21328618  0.45007915     1.93700
Cr790      Cr  0.73508111  0.21483860  0.48004049     1.93200
Cr791      Cr  0.72486207  0.16922831  0.43827122     1.39100
O792        O  0.74619585  0.19886389  0.45606335    -1.23300
C793        C  0.81478040  0.13639785  0.44019208    -0.21500
C794        C  0.80364590  0.11364067  0.45703126    -0.09500
C795        C  0.77837840  0.10375055  0.46804823     0.29300
C796        C  0.76542716  0.11771596  0.46408673    -0.21500
C797        C  0.77742020  0.14149413  0.44876069    -0.09500
C798        C  0.80191405  0.14999171  0.43574499     0.29300
F799        F  0.81405688  0.17200252  0.41930674    -0.20100
H800        H  0.83402456  0.14414527  0.43103472     0.17700
H801        H  0.74654901  0.11048727  0.47404389     0.17700
F802        F  0.76694294  0.08160636  0.48424463    -0.20000
C803        C  0.68531191  0.14989485  0.05019377    -0.21500
C804        C  0.67862271  0.14761569  0.01956759    -0.09500
C805        C  0.65248345  0.13472908  0.01151061     0.29300
C806        C  0.63352572  0.12649713  0.03393725    -0.21500
C807        C  0.64035517  0.13049687  0.06458932    -0.09500
C808        C  0.66637623  0.14123701  0.07258650     0.29300
F809        F  0.67377498  0.14592132  0.10191403    -0.20100
H810        H  0.70536152  0.15994825  0.05681297     0.17700
H811        H  0.61358790  0.11832539  0.02733053     0.17700
F812        F  0.64536687  0.13258440  0.98211651    -0.20000
C813        C  0.55397330  0.02169178  0.11469858    -0.21500
C814        C  0.54448583  0.03290739  0.13511408    -0.09500
C815        C  0.52228090  0.01670718  0.15207768     0.29300
C816        C  0.50934621  0.99021060  0.14778521    -0.21500
C817        C  0.51796467  0.97890068  0.12646691    -0.09500
C818        C  0.54083119  0.99490644  0.11029153     0.29300
F819        F  0.55001723  0.98489835  0.08951986    -0.20100
H820        H  0.57102572  0.03370929  0.10139342     0.17700
H821        H  0.49210122  0.97853699  0.16095536     0.17700
F822        F  0.51275857  0.02643164  0.17281912    -0.20000
C823        C  0.53277375  0.85097077  0.20298043    -0.21500
C824        C  0.53937952  0.86490847  0.22996744    -0.09500
C825        C  0.53988857  0.88855954  0.23100855     0.29300
C826        C  0.53172190  0.89686188  0.20582349    -0.21500
C827        C  0.52329714  0.88165169  0.17962577    -0.09500
C828        C  0.52525953  0.85939573  0.17791632     0.29300
F829        F  0.51730078  0.84433891  0.15287943    -0.20100
H830        H  0.53138615  0.83235483  0.20203114     0.17700
H831        H  0.52979444  0.91377951  0.20773740     0.17700
F832        F  0.54554675  0.90208324  0.25713974    -0.20000
C833        C  0.80112492  0.00764211  0.34820805    -0.21500
C834        C  0.79021930  0.98161874  0.35598397    -0.09500
C835        C  0.78695644  0.97451546  0.38662635     0.29300
C836        C  0.79652469  0.99338071  0.40899930    -0.21500
C837        C  0.80998632  0.01946773  0.40104005    -0.09500
C838        C  0.81127661  0.02652953  0.37057065     0.29300
F839        F  0.82360895  0.05166627  0.36234972    -0.20100
H840        H  0.80385819  0.01347919  0.32472645     0.17700
H841        H  0.79536133  0.98760589  0.43238139     0.17700
F842        F  0.77610847  0.94943708  0.39482631    -0.20000
C843        C  0.65113327  0.88589508  0.30476403    -0.21500
C844        C  0.63547878  0.86163127  0.29139988    -0.09500
C845        C  0.64760320  0.85010810  0.27581610     0.29300
C846        C  0.67431837  0.86210300  0.27437618    -0.21500
C847        C  0.69007626  0.88604585  0.28810300    -0.09500
C848        C  0.67818469  0.89809242  0.30305023     0.29300
F849        F  0.69257139  0.92123417  0.31662328    -0.20100
H850        H  0.64246077  0.89523923  0.31701784     0.17700
H851        H  0.68268494  0.85234061  0.26236670     0.17700
F852        F  0.63377609  0.82680446  0.26236006    -0.20000
C853        C  0.98264877  0.44436474  0.36091357    -0.21500
C854        C  0.97089745  0.45484703  0.37901514    -0.09500
C855        C  0.98675732  0.47736036  0.39554431     0.29300
C856        C  0.01347981  0.48911474  0.39369709    -0.21500
C857        C  0.02541289  0.47915364  0.37509156    -0.09500
C858        C  0.00962664  0.45646120  0.35871338     0.29300
F859        F  0.02012178  0.44627333  0.34002668    -0.20100
H860        H  0.97094226  0.42711303  0.34790168     0.17700
H861        H  0.02487571  0.50651539  0.40659881     0.17700
F862        F  0.97653786  0.48816010  0.41375340    -0.20000
C863        C  0.82893597  0.32904722  0.44654748    -0.21500
C864        C  0.82041449  0.33882382  0.42330997    -0.09500
C865        C  0.79493645  0.32338463  0.41278122     0.29300
C866        C  0.77932026  0.29818411  0.42375160    -0.21500
C867        C  0.78884611  0.28787155  0.44515685    -0.09500
C868        C  0.81353556  0.30398121  0.45720866     0.29300
F869        F  0.82330884  0.29519563  0.47865299    -0.20100
H870        H  0.84817734  0.34035253  0.45556497     0.17700
H871        H  0.76037854  0.28626053  0.41420543     0.17700
F872        F  0.78545613  0.33209010  0.39091671    -0.20000
C873        C  0.14322254  0.46618943  0.42406998    -0.21500
C874        C  0.12600464  0.47512500  0.42903903    -0.09500
C875        C  0.11826442  0.47625017  0.45870857     0.29300
C876        C  0.12942642  0.47063592  0.48316797    -0.21500
C877        C  0.14854707  0.46407799  0.47818233    -0.09500
C878        C  0.15432890  0.46057303  0.44834929     0.29300
F879        F  0.17195123  0.45326196  0.44264893    -0.20100
H880        H  0.14969139  0.46559468  0.40136601     0.17700
H881        H  0.12472020  0.47351346  0.50593219     0.17700
F882        F  0.10207760  0.48541263  0.46411447    -0.20000
C883        C  0.12215584  0.35537123  0.03282230    -0.21500
C884        C  0.14552488  0.36742524  0.04873516    -0.09500
C885        C  0.15323778  0.35182677  0.06398070     0.29300
C886        C  0.13870540  0.32511611  0.06205739    -0.21500
C887        C  0.11603519  0.31292205  0.04492075    -0.09500
C888        C  0.10752255  0.32838057  0.03083793     0.29300
F889        F  0.08544300  0.31755718  0.01460785    -0.20100
H890        H  0.11553172  0.36683793  0.02127494     0.17700
H891        H  0.14568659  0.31396073  0.07363610     0.17700
F892        F  0.17496632  0.36229554  0.08090387    -0.20000
C893        C  0.96172062  0.11668485  0.49935563    -0.21500
C894        C  0.94997363  0.12493128  0.47820242    -0.09500
C895        C  0.96523667  0.14864979  0.46346555     0.29300
C896        C  0.99334270  0.16329429  0.97276615    -0.21500
C897        C  0.00171747  0.15797508  0.49534514    -0.09500
C898        C  0.98754058  0.13310572  0.50787255     0.29300
F899        F  0.99777564  0.12563077  0.53019893    -0.20100
H900        H  0.95049529  0.09840735  0.51074042     0.17700
H901        H  0.00600534  0.18083970  0.96061382     0.17700
F902        F  0.96025486  0.15574783  0.93833295    -0.20000
C903        C  0.69111774  0.20532439  0.20462525    -0.21500
C904        C  0.71072282  0.21649698  0.18276434    -0.09500
C905        C  0.70410642  0.21270191  0.15207391     0.29300
C906        C  0.67843107  0.19755331  0.14342017    -0.21500
C907        C  0.65890518  0.18506757  0.16513798    -0.09500
C908        C  0.66540123  0.18933910  0.19593616     0.29300
F909        F  0.64705512  0.17755729  0.21753440    -0.20100
H910        H  0.69590781  0.20774225  0.22840187     0.17700
H911        H  0.67402205  0.19431042  0.11957394     0.17700
F912        F  0.72262240  0.22300137  0.13042216    -0.20000
C913        C  0.86054410  0.31543227  0.29070913    -0.21500
C914        C  0.85567657  0.32257779  0.26243215    -0.09500
C915        C  0.86257724  0.34819544  0.25708537     0.29300
C916        C  0.87166053  0.36582484  0.28058716    -0.21500
C917        C  0.87331893  0.35802445  0.30996529    -0.09500
C918        C  0.86934684  0.33313405  0.31458775     0.29300
F919        F  0.87112930  0.32509831  0.34262024    -0.20100
H920        H  0.85525733  0.29565644  0.29502448     0.17700
H921        H  0.87520042  0.38507242  0.27635443     0.17700
F922        F  0.85818635  0.35554381  0.22980409    -0.20000
C923        C  0.80321283  0.25560167  0.08598258    -0.21500
C924        C  0.79982595  0.23550338  0.10514209    -0.09500
C925        C  0.79079807  0.21084273  0.09275109     0.29300
C926        C  0.78435403  0.20642985  0.06200872    -0.21500
C927        C  0.78636390  0.22638531  0.04361418    -0.09500
C928        C  0.79630859  0.25107888  0.05574957     0.29300
F929        F  0.79873538  0.27080617  0.03847807    -0.20100
H930        H  0.81014325  0.27480650  0.09466904     0.17700
H931        H  0.77658808  0.18721392  0.05295117     0.17700
F932        F  0.78766631  0.19099056  0.11032384    -0.20000
C933        C  0.75252868  0.19743068  0.30352615    -0.21500
C934        C  0.77068216  0.22273652  0.29508841    -0.09500
C935        C  0.78676281  0.23984735  0.31748091     0.29300
C936        C  0.78404291  0.23220461  0.34749493    -0.21500
C937        C  0.76520832  0.20734540  0.35641620    -0.09500
C938        C  0.74967930  0.18975654  0.33397594     0.29300
F939        F  0.73144122  0.16542117  0.34140602    -0.20100
H940        H  0.74012089  0.18380914  0.28670032     0.17700
H941        H  0.79660333  0.24620552  0.36392048     0.17700
F942        F  0.80534305  0.26418796  0.31051249    -0.20000
C943        C  0.85292852  0.03294637  0.21175944    -0.21500
C944        C  0.87498118  0.04993797  0.22811980    -0.09500
C945        C  0.88179561  0.04052410  0.25334578     0.29300
C946        C  0.86553665  0.01510755  0.26329120    -0.21500
C947        C  0.84238075  0.99861888  0.24806391    -0.09500
C948        C  0.83694794  0.00763581  0.22131058     0.29300
F949        F  0.81539655  0.99258544  0.20512975    -0.20100
H950        H  0.84739492  0.03967683  0.19204558     0.17700
H951        H  0.87042894  0.00879535  0.28382409     0.17700
F952        F  0.90293528  0.05638796  0.26973362    -0.20000
C953        C  0.84982052  0.17959971  0.22953741    -0.21500
C954        C  0.87525867  0.19044723  0.21880801    -0.09500
C955        C  0.88706210  0.21528791  0.20620646     0.29300
C956        C  0.87324305  0.22835243  0.20344758    -0.21500
C957        C  0.84752106  0.21703905  0.21339881    -0.09500
C958        C  0.83613672  0.19258663  0.22698435     0.29300
F959        F  0.81140295  0.18062866  0.23695627    -0.20100
H960        H  0.84012503  0.16063023  0.23963767     0.17700
H961        H  0.88258203  0.24720295  0.19305350     0.17700
F962        F  0.91167823  0.22675955  0.19599304    -0.20000
C963        C  0.88843909  0.10785228  0.32410258    -0.21500
C964        C  0.89426674  0.13218815  0.31369479    -0.09500
C965        C  0.89697852  0.15099040  0.33470050     0.29300
C966        C  0.89329220  0.14507849  0.36563775    -0.21500
C967        C  0.88778325  0.12072573  0.37584106    -0.09500
C968        C  0.88555512  0.10223966  0.35473675     0.29300
F969        F  0.88020021  0.07845727  0.36365416    -0.20100
H970        H  0.88646874  0.09311984  0.30843187     0.17700
H971        H  0.89526167  0.15959925  0.38161279     0.17700
F972        F  0.90269140  0.17476591  0.32534369    -0.20000
C973        C  0.86250678  0.08831812  0.11232518    -0.21500
C974        C  0.87202650  0.11229622  0.12632473    -0.09500
C975        C  0.87622035  0.13365743  0.10900454     0.29300
C976        C  0.87203859  0.13112105  0.07775981    -0.21500
C977        C  0.86284703  0.10712183  0.06379429    -0.09500
C978        C  0.85756505  0.08562707  0.08139791     0.29300
F979        F  0.84921676  0.06235788  0.06833163    -0.20100
H980        H  0.85952454  0.07176812  0.12529618     0.17700
H981        H  0.87632640  0.14789352  0.06439972     0.17700
F982        F  0.88596920  0.15719998  0.12191358    -0.20000
C983        C  0.99452081  0.21403691  0.14919825    -0.21500
C984        C  0.97096778  0.19149463  0.14344734    -0.09500
C985        C  0.96520473  0.18232608  0.11355123     0.29300
C986        C  0.98380103  0.19347295  0.09099732    -0.21500
C987        C  0.00836709  0.21400666  0.09755177    -0.09500
C988        C  0.01321632  0.22524882  0.12632892     0.29300
F989        F  0.03682905  0.24520189  0.13315756    -0.20100
H990        H  0.99936826  0.22160903  0.17190810     0.17700
H991        H  0.97978856  0.18450481  0.06891991     0.17700
F992        F  0.94240223  0.16117939  0.10652996    -0.20000
C993        C  0.84135602  0.96243741  0.50025216    -0.21500
C994        C  0.82734132  0.95760466  0.02157078    -0.09500
C995        C  0.82415675  0.97531075  0.03913216     0.29300
C996        C  0.83402507  0.00061716  0.02934409    -0.21500
C997        C  0.84698237  0.00887787  0.00154898    -0.09500
C998        C  0.85208399  0.98822125  0.49120503     0.29300
F999        F  0.86754556  0.99630002  0.46646134    -0.20100
H1000       H  0.84543923  0.94963231  0.48723222     0.17700
H1001       H  0.83037496  0.01341151  0.04298109     0.17700
F1002       F  0.81063060  0.96784550  0.06539657    -0.20000
C1003       C  0.78720047  0.89389710  0.39835179    -0.21500
C1004       C  0.76727043  0.88012263  0.37760990    -0.09500
C1005       C  0.74335307  0.86031659  0.38837977     0.29300
C1006       C  0.73972308  0.85463148  0.41937037    -0.21500
C1007       C  0.75961443  0.86909738  0.43981842    -0.09500
C1008       C  0.78339106  0.88861990  0.42905626     0.29300
F1009       F  0.80315050  0.90241166  0.44833867    -0.20100
H1010       H  0.80578856  0.90929024  0.39092428     0.17700
H1011       H  0.72128966  0.83943058  0.42747425     0.17700
F1012       F  0.72357853  0.84656589  0.36915431    -0.20000
C1013       C  0.77301587  0.91944884  0.13957507    -0.21500
C1014       C  0.76523947  0.89535884  0.12681544    -0.09500
C1015       C  0.75433380  0.87338473  0.14519105     0.29300
C1016       C  0.75281762  0.87574619  0.17640445    -0.21500
C1017       C  0.76101046  0.89991853  0.18938276    -0.09500
C1018       C  0.77032760  0.92167635  0.17059683     0.29300
F1019       F  0.77809710  0.94526033  0.18241306    -0.20100
H1020       H  0.78147534  0.93652600  0.12555930     0.17700
H1021       H  0.74537892  0.85874667  0.19046246     0.17700
F1022       F  0.74627721  0.84983404  0.13304065    -0.20000
C1023       C  0.47982009  0.78507588  0.08320860    -0.21500
C1024       C  0.49670331  0.79272016  0.05831104    -0.09500
C1025       C  0.50137950  0.81478035  0.04212910     0.29300
C1026       C  0.49130224  0.83000134  0.05201571    -0.21500
C1027       C  0.47621622  0.82368281  0.07825097    -0.09500
C1028       C  0.46968178  0.80050898  0.09324192     0.29300
F1029       F  0.45569468  0.79413642  0.11915186    -0.20100
H1030       H  0.47605214  0.76827973  0.09618807     0.17700
H1031       H  0.49663163  0.84773457  0.04011859     0.17700
F1032       F  0.51688418  0.82243905  0.01748207    -0.20000
C1033       C  0.65211747  0.81440302  0.06246202    -0.21500
C1034       C  0.63673949  0.78850753  0.05394873    -0.09500
C1035       C  0.64918556  0.77523394  0.04368715     0.29300
C1036       C  0.67621316  0.78827525  0.04022246    -0.21500
C1037       C  0.69111526  0.81464567  0.04688859    -0.09500
C1038       C  0.67875724  0.82726183  0.05900861     0.29300
F1039       F  0.69248204  0.85241622  0.06705203    -0.20100
H1040       H  0.64349011  0.82517093  0.07122191     0.17700
H1041       H  0.68531700  0.77810357  0.03102400     0.17700
F1042       F  0.63531876  0.75001520  0.03611505    -0.20000
C1043       C  0.55686144  0.75747488  0.16873275    -0.21500
C1044       C  0.56092322  0.77653666  0.14737492    -0.09500
C1045       C  0.56297903  0.79965137  0.15755032     0.29300
C1046       C  0.56005795  0.80313290  0.18803154    -0.21500
C1047       C  0.55441822  0.78361884  0.20911974    -0.09500
C1048       C  0.55353565  0.76093255  0.19947815     0.29300
F1049       F  0.54807227  0.74168032  0.21934262    -0.20100
H1050       H  0.55518307  0.73949474  0.16147119     0.17700
H1051       H  0.56191337  0.82117703  0.19519635     0.17700
F1052       F  0.56755512  0.81891552  0.13805372    -0.20000
C1053       C  0.57947133  0.79809570  0.44003166    -0.21500
C1054       C  0.56070901  0.79888970  0.45821967    -0.09500
C1055       C  0.54584973  0.80876426  0.44623677     0.29300
C1056       C  0.54916665  0.81706316  0.41637857    -0.21500
C1057       C  0.56680230  0.81494379  0.39741164    -0.09500
C1058       C  0.58232544  0.80574443  0.40966222     0.29300
F1059       F  0.59961905  0.80336928  0.39218238    -0.20100
H1060       H  0.59089711  0.79025499  0.44886503     0.17700
H1061       H  0.53684522  0.82390744  0.40770262     0.17700
F1062       F  0.52748198  0.80965953  0.46319440    -0.20000
C1063       C  0.52586202  0.65024999  0.46528088    -0.21500
C1064       C  0.52797453  0.65834610  0.43519337    -0.09500
C1065       C  0.53947936  0.68463055  0.42872465     0.29300
C1066       C  0.54611121  0.70231120  0.45211812    -0.21500
C1067       C  0.54121431  0.69398220  0.48228052    -0.09500
C1068       C  0.53268167  0.66802353  0.48886697     0.29300
F1069       F  0.52550635  0.65868449  0.01648145    -0.20100
H1070       H  0.51666822  0.62995615  0.47054802     0.17700
H1071       H  0.55301864  0.72227500  0.44652635     0.17700
F1072       F  0.54147079  0.69282986  0.39977404    -0.20000
C1073       C  0.48165775  0.68018980  0.30850220    -0.21500
C1074       C  0.48246605  0.67418598  0.33894140    -0.09500
C1075       C  0.49055506  0.69377403  0.36065172     0.29300
C1076       C  0.49941440  0.71921182  0.35182397    -0.21500
C1077       C  0.49985168  0.72557800  0.32123804    -0.09500
C1078       C  0.48994598  0.70565981  0.29969110     0.29300
F1079       F  0.49032506  0.71110274  0.26991215    -0.20100
H1080       H  0.47577456  0.66539937  0.29143743     0.17700
H1081       H  0.50687366  0.73415557  0.36883939     0.17700
F1082       F  0.49124578  0.68851710  0.39031495    -0.20000
C1083       C  0.52891289  0.52514129  0.40577460    -0.21500
C1084       C  0.55044852  0.53073410  0.38781449    -0.09500
C1085       C  0.55889077  0.55075218  0.36651003     0.29300
C1086       C  0.54541012  0.56413154  0.36267867    -0.21500
C1087       C  0.52328175  0.55784843  0.37999819    -0.09500
C1088       C  0.51558783  0.53847654  0.40213911     0.29300
F1089       F  0.49489744  0.53202777  0.42018321    -0.20100
H1090       H  0.52208123  0.51005336  0.42261888     0.17700
H1091       H  0.55181399  0.57884695  0.34542981     0.17700
F1092       F  0.57931541  0.55650781  0.34834075    -0.20000
C1093       C  0.65576245  0.53042201  0.25972757    -0.21500
C1094       C  0.68133474  0.54862768  0.26637680    -0.09500
C1095       C  0.68737969  0.55888002  0.29570278     0.29300
C1096       C  0.66866858  0.54869507  0.31875370    -0.21500
C1097       C  0.64370097  0.52828482  0.31268326    -0.09500
C1098       C  0.63706594  0.52047766  0.28242485     0.29300
F1099       F  0.61293254  0.50174470  0.27501116    -0.20100
H1100       H  0.65066056  0.52238477  0.23722181     0.17700
H1101       H  0.67429643  0.55535029  0.34168638     0.17700
F1102       F  0.71177565  0.57709635  0.30263064    -0.20000
C1103       C  0.79813922  0.81450474  0.15973748    -0.21500
C1104       C  0.80414080  0.79548483  0.15224747    -0.09500
C1105       C  0.80065970  0.78643353  0.12243062     0.29300
C1106       C  0.79317872  0.79787496  0.10002702    -0.21500
C1107       C  0.78976960  0.81883949  0.10710563    -0.09500
C1108       C  0.79135639  0.82632176  0.13751366     0.29300
F1109       F  0.78849653  0.84650179  0.14563150    -0.20100
H1110       H  0.80130323  0.82210053  0.18250994     0.17700
H1111       H  0.79220355  0.79179274  0.07681548     0.17700
F1112       F  0.80707562  0.76856817  0.11443188    -0.20000
C1113       C  0.82856976  0.68535571  0.20275861    -0.21500
C1114       C  0.81525140  0.69849712  0.20926260    -0.09500
C1115       C  0.78833470  0.68398904  0.21332190     0.29300
C1116       C  0.77526597  0.65706274  0.21078144    -0.21500
C1117       C  0.78880281  0.64406105  0.20500374    -0.09500
C1118       C  0.81562846  0.65853450  0.20090252     0.29300
F1119       F  0.82934665  0.64678384  0.19436572    -0.20100
H1120       H  0.84923741  0.69584375  0.19955687     0.17700
H1121       H  0.75459350  0.64630982  0.21389902     0.17700
F1122       F  0.77458933  0.69574152  0.21957628    -0.20000
C1123       C  0.83622590  0.84599095  0.27909274    -0.21500
C1124       C  0.85126961  0.85285597  0.25279827    -0.09500
C1125       C  0.85779945  0.87617927  0.23830626     0.29300
C1126       C  0.84746296  0.89121729  0.24870442    -0.21500
C1127       C  0.83045726  0.88294341  0.27341767    -0.09500
C1128       C  0.82597015  0.86087289  0.28941512     0.29300
F1129       F  0.81046949  0.85290992  0.31416502    -0.20100
H1130       H  0.83105452  0.82813042  0.29059056     0.17700
H1131       H  0.85109717  0.90814255  0.23608881     0.17700
F1132       F  0.87183899  0.88299320  0.21242404    -0.20000
C1133       C  0.85326640  0.83023869  0.46186818    -0.21500
C1134       C  0.87102180  0.83065273  0.48275746    -0.09500
C1135       C  0.87119855  0.83606525  0.01521917     0.29300
C1136       C  0.85566544  0.84621970  0.02388184    -0.21500
C1137       C  0.83648227  0.84756010  0.49970931    -0.09500
C1138       C  0.83587997  0.83833107  0.47030177     0.29300
F1139       F  0.81809578  0.83638986  0.45004705    -0.20100
H1140       H  0.85198930  0.82238767  0.43950293     0.17700
H1141       H  0.85224288  0.84729682  0.04772655     0.17700
F1142       F  0.88162098  0.82819081  0.03692546    -0.20000
C1143       C  0.91907376  0.77657254  0.08360932    -0.21500
C1144       C  0.89877131  0.76818126  0.06268812    -0.09500
C1145       C  0.87446985  0.76300123  0.07328108     0.29300
C1146       C  0.87114561  0.76772284  0.10333501    -0.21500
C1147       C  0.89161250  0.77712310  0.12384028    -0.09500
C1148       C  0.91548254  0.78075013  0.11403758     0.29300
F1149       F  0.93569020  0.78986442  0.13328573    -0.20100
H1150       H  0.93796961  0.78067312  0.07623267     0.17700
H1151       H  0.85251763  0.76457590  0.11051520     0.17700
F1152       F  0.85410123  0.75465840  0.05436688    -0.20000
C1153       C  0.85737445  0.78275094  0.36516085    -0.21500
C1154       C  0.87622468  0.77721594  0.37498415    -0.09500
C1155       C  0.88662375  0.76709614  0.35435150     0.29300
C1156       C  0.87924119  0.76374148  0.32407997    -0.21500
C1157       C  0.86146009  0.77061202  0.31354261    -0.09500
C1158       C  0.85011741  0.77967885  0.33465632     0.29300
F1159       F  0.83276267  0.78650289  0.32578129    -0.20100
H1160       H  0.84924032  0.79066285  0.38076727     0.17700
H1161       H  0.88824240  0.75660664  0.30866271     0.17700
F1162       F  0.90432578  0.76080977  0.36345482    -0.20000
C1163       C  0.69672411  0.50057621  0.45458581    -0.21500
C1164       C  0.71628405  0.50853392  0.43274342    -0.09500
C1165       C  0.70973819  0.50622565  0.40202211     0.29300
C1166       C  0.68429643  0.49718912  0.39338346    -0.21500
C1167       C  0.66498047  0.49098158  0.41514729    -0.09500
C1168       C  0.67126726  0.49219431  0.44590961     0.29300
F1169       F  0.65299706  0.48596521  0.46751453    -0.20100
H1170       H  0.70143172  0.50245485  0.47837098     0.17700
H1171       H  0.67999494  0.49656324  0.36956629     0.17700
F1172       F  0.72817100  0.51373339  0.38033507    -0.20000
C1173       C  0.89218330  0.68558605  0.45870738    -0.21500
C1174       C  0.87813869  0.69855739  0.45953652    -0.09500
C1175       C  0.85111109  0.68406566  0.45858390     0.29300
C1176       C  0.83848272  0.65732718  0.45735574    -0.21500
C1177       C  0.85233480  0.64424774  0.45630061    -0.09500
C1178       C  0.87941339  0.65861858  0.45653541     0.29300
F1179       F  0.89344680  0.64663376  0.45532369    -0.20100
H1180       H  0.91300420  0.69634194  0.45942930     0.17700
H1181       H  0.81379843  0.64381497  0.95667744     0.24900
F1182       F  0.83291710  0.69272602  0.96095194    -0.20000
C1183       C  0.82627080  0.49379273  0.38704396    -0.21500
C1184       C  0.81191591  0.48808219  0.41378251    -0.09500
C1185       C  0.80483892  0.46481297  0.42883377     0.29300
C1186       C  0.81396244  0.44867951  0.41844809    -0.21500
C1187       C  0.83023438  0.45570575  0.39307822    -0.09500
C1188       C  0.83518579  0.47776676  0.37663242     0.29300
F1189       F  0.84994238  0.48465153  0.35127534    -0.20100
H1190       H  0.83183517  0.51154476  0.37506139     0.17700
H1191       H  0.80997820  0.43184963  0.43150103     0.17700
F1192       F  0.79136409  0.45899180  0.45509744    -0.20000
C1193       C  0.78463662  0.57899922  0.34475697    -0.21500
C1194       C  0.80442789  0.57452451  0.35371002    -0.09500
C1195       C  0.81704593  0.56791943  0.33149796     0.29300
C1196       C  0.80886706  0.56445950  0.30134668    -0.21500
C1197       C  0.78782452  0.56714440  0.29310898    -0.09500
C1198       C  0.77633582  0.57522243  0.31489845     0.29300
F1199       F  0.75652679  0.57884222  0.30740633    -0.20100
H1200       H  0.77462334  0.58419966  0.36116440     0.17700
H1201       H  0.81802995  0.55833516  0.28484440     0.17700
F1202       F  0.83668794  0.56398988  0.33901043    -0.20000
C1203       C  0.74758563  0.55779982  0.05208895    -0.21500
C1204       C  0.77223094  0.56381396  0.04241798    -0.09500
C1205       C  0.79266579  0.57465544  0.06304153     0.29300
C1206       C  0.78830576  0.57819582  0.09317299    -0.21500
C1207       C  0.76338528  0.57073312  0.10360412    -0.09500
C1208       C  0.74306636  0.56101668  0.08247619     0.29300
F1209       F  0.71867084  0.55366951  0.09125969    -0.20100
H1210       H  0.73159014  0.54932726  0.03649715     0.17700
H1211       H  0.80441444  0.58590132  0.10859522     0.17700
F1212       F  0.81687631  0.58139633  0.05409669    -0.20000
C1213       C  0.15487303  0.52710669  0.12445589    -0.21500
C1214       C  0.16323404  0.55117705  0.11094094    -0.09500
C1215       C  0.18215249  0.55957837  0.08826343     0.29300
C1216       C  0.19074384  0.54307953  0.07765929    -0.21500
C1217       C  0.18081948  0.51812762  0.08976067    -0.09500
C1218       C  0.16346362  0.51079090  0.11416936     0.29300
F1219       F  0.15337500  0.48717976  0.12702394    -0.20100
H1220       H  0.14052120  0.52027013  0.14225218     0.17700
H1221       H  0.20430356  0.54941840  0.05906056     0.17700
F1222       F  0.19087272  0.58279189  0.07486431    -0.20000
C1223       C  0.12508716  0.56605135  0.01411077    -0.21500
C1224       C  0.10522926  0.57069322  0.02232692    -0.09500
C1225       C  0.09174633  0.57257897  0.50000727     0.29300
C1226       C  0.09595080  0.56885459  0.46968268    -0.21500
C1227       C  0.11043538  0.55711356  0.46212126    -0.09500
C1228       C  0.12050677  0.54900401  0.48563003     0.29300
F1229       F  0.13492505  0.53784358  0.47996324    -0.20100
H1230       H  0.13753907  0.56517491  0.03113605     0.17700
H1231       H  0.08796675  0.57527526  0.45213376     0.17700
F1232       F  0.07101352  0.57773533  0.00670109    -0.20000
C1233       C  0.11159253  0.53033899  0.25123816    -0.21500
C1234       C  0.09382360  0.53177893  0.27072635    -0.09500
C1235       C  0.07763961  0.54037988  0.25896551     0.29300
C1236       C  0.07976149  0.54780313  0.22848377    -0.21500
C1237       C  0.09840789  0.54732546  0.20968274    -0.09500
C1238       C  0.11408282  0.53826194  0.22128945     0.29300
F1239       F  0.13229374  0.53756283  0.20371494    -0.20100
H1240       H  0.12446139  0.52400085  0.25946513     0.17700
H1241       H  0.06773233  0.55505668  0.21996663     0.17700
F1242       F  0.06019784  0.54208436  0.27690729    -0.20000
C1243       C  0.80280774  0.34847123  0.17275538    -0.21500
C1244       C  0.81025350  0.33222620  0.15862940    -0.09500
C1245       C  0.82656139  0.34136573  0.13332622     0.29300
C1246       C  0.83698972  0.36685126  0.12400690    -0.21500
C1247       C  0.83133007  0.38380539  0.13957131    -0.09500
C1248       C  0.81326171  0.37415753  0.16328708     0.29300
F1249       F  0.80760811  0.39007405  0.17903942    -0.20100
H1250       H  0.79060441  0.34193970  0.19261621     0.17700
H1251       H  0.85055967  0.37371505  0.10537934     0.17700
F1252       F  0.83367461  0.32601905  0.11873865    -0.20000
C1253       C  0.87832798  0.52181255  0.03206255    -0.21500
C1254       C  0.87530692  0.52697249  0.06229664    -0.09500
C1255       C  0.86648269  0.54421978  0.06844773     0.29300
C1256       C  0.85815693  0.55371074  0.04474326    -0.21500
C1257       C  0.85873271  0.54626469  0.01484352    -0.09500
C1258       C  0.86988394  0.53112336  0.00854323     0.29300
F1259       F  0.87010365  0.52312173  0.97992056    -0.20100
H1260       H  0.88533499  0.50881529  0.02673492     0.17700
H1261       H  0.84908652  0.56490350  0.04999750     0.17700
F1262       F  0.86304814  0.54946591  0.09732810    -0.20000
C1263       C  0.87361570  0.43494212  0.26790555    -0.21500
C1264       C  0.89088987  0.45295721  0.28855520    -0.09500
C1265       C  0.91129185  0.47641581  0.27788561     0.29300
C1266       C  0.91350107  0.48204538  0.24695496    -0.21500
C1267       C  0.89595803  0.46395665  0.22647142    -0.09500
C1268       C  0.87624518  0.44016739  0.23719434     0.29300
F1269       F  0.85890410  0.42221633  0.21807135    -0.20100
H1270       H  0.85794750  0.41661023  0.27557178     0.17700
H1271       H  0.92896276  0.50036305  0.23897535     0.17700
F1272       F  0.92853489  0.49407263  0.29729363    -0.20000
C1273       C  0.88254547  0.45600948  0.01766356    -0.21500
C1274       C  0.89646737  0.45010735  0.03814962    -0.09500
C1275       C  0.91301734  0.44166591  0.02744307     0.29300
C1276       C  0.91361658  0.43867470  0.49626938    -0.21500
C1277       C  0.89519590  0.43768203  0.47602518    -0.09500
C1278       C  0.87385008  0.43874763  0.48705198     0.29300
F1279       F  0.85525306  0.43697921  0.46817936    -0.20100
H1280       H  0.86972922  0.46257421  0.02556200     0.17700
H1281       H  0.93013130  0.43777152  0.48799374     0.17700
F1282       F  0.92684716  0.43602405  0.04695763    -0.20000
C1283       C  0.98427365  0.55253332  0.12713956    -0.21500
C1284       C  0.97106732  0.52544760  0.12760502    -0.09500
C1285       C  0.98531710  0.51283088  0.12421825     0.29300
C1286       C  0.01180964  0.52677013  0.12052571    -0.21500
C1287       C  0.02523968  0.55375257  0.12007512    -0.09500
C1288       C  0.01124592  0.56666444  0.12362950     0.29300
F1289       F  0.02346403  0.59272470  0.12338603    -0.20100
H1290       H  0.97379061  0.56272085  0.12987252     0.17700
H1291       H  0.02186084  0.51612119  0.11804830     0.17700
F1292       F  0.97368892  0.48677809  0.12402456    -0.20000
C1293       C  0.79821892  0.48453168  0.15010527    -0.21500
C1294       C  0.81835230  0.48701443  0.16864994    -0.09500
C1295       C  0.82033370  0.49677266  0.19811056     0.29300
C1296       C  0.80370791  0.50544596  0.20775991    -0.21500
C1297       C  0.78512898  0.50489172  0.18817343    -0.09500
C1298       C  0.78198521  0.49364930  0.15959077     0.29300
F1299       F  0.76394380  0.49255430  0.14032451    -0.20100
H1300       H  0.79599213  0.47699905  0.12741690     0.17700
H1301       H  0.80652688  0.51425316  0.22981259     0.17700
F1302       F  0.83909577  0.49916431  0.21708490    -0.20000
C1303       C  0.98717166  0.81386385  0.34399778    -0.21500
C1304       C  0.01015520  0.81333504  0.34614360    -0.09500
C1305       C  0.01408384  0.80140438  0.37125798     0.29300
C1306       C  0.99615633  0.79246311  0.39519992    -0.21500
C1307       C  0.97447120  0.79555856  0.39407866    -0.09500
C1308       C  0.96966570  0.80536857  0.36769168     0.29300
F1309       F  0.94914777  0.80895361  0.36584822    -0.20100
H1310       H  0.98366357  0.82280347  0.32470364     0.17700
H1311       H  0.00035006  0.78527704  0.41557207     0.17700
F1312       F  0.03622437  0.80074340  0.37398022    -0.20000
C1313       C  0.99401839  0.85005182  0.21776649    -0.21500
C1314       C  0.00182364  0.85940348  0.24709522    -0.09500
C1315       C  0.98391879  0.85979884  0.26730741     0.29300
C1316       C  0.95810056  0.84910328  0.25888243    -0.21500
C1317       C  0.95010636  0.83870409  0.22993384    -0.09500
C1318       C  0.96842112  0.84016252  0.20902112     0.29300
F1319       F  0.96105622  0.82974225  0.18111599    -0.20100
H1320       H  0.00742627  0.84902526  0.20221732     0.17700
H1321       H  0.94414878  0.84791451  0.27532478     0.17700
F1322       F  0.99088953  0.86827080  0.29603835    -0.20000
C1323       C  0.15578915  0.81513726  0.27934348    -0.21500
C1324       C  0.14361866  0.79012853  0.29138468    -0.09500
C1325       C  0.11774530  0.77901187  0.30097929     0.29300
C1326       C  0.10461199  0.79275732  0.29862220    -0.21500
C1327       C  0.11719256  0.81799152  0.28749739    -0.09500
C1328       C  0.14284644  0.82899561  0.27764364     0.29300
F1329       F  0.15529022  0.85308177  0.26581652    -0.20100
H1330       H  0.17559123  0.82426192  0.27173962     0.17700
H1331       H  0.08481052  0.78393326  0.30616620     0.17700
F1332       F  0.10513405  0.75496468  0.31285953    -0.20000
C1333       C  0.15086124  0.65519960  0.35443143    -0.21500
C1334       C  0.17481523  0.66992789  0.34007429    -0.09500
C1335       C  0.19088902  0.65924092  0.33644799     0.29300
C1336       C  0.18202697  0.63358184  0.34492204    -0.21500
C1337       C  0.15709969  0.61849055  0.35670307    -0.09500
C1338       C  0.14198416  0.62976162  0.36234711     0.29300
F1339       F  0.11808265  0.61577487  0.37455365    -0.20100
H1340       H  0.13822620  0.66294675  0.35812823     0.17700
H1341       H  0.19393875  0.62510181  0.34064925     0.17700
F1342       F  0.21424836  0.67283210  0.32292928    -0.20000
C1343       C  0.11976498  0.66027760  0.23924202    -0.21500
C1344       C  0.13401790  0.68671986  0.23349551    -0.09500
C1345       C  0.13820846  0.69558515  0.20354580     0.29300
C1346       C  0.13045867  0.67802046  0.17964134    -0.21500
C1347       C  0.11878017  0.65158211  0.18561008    -0.09500
C1348       C  0.11205226  0.64275494  0.21546822     0.29300
F1349       F  0.10005102  0.61722125  0.22177706    -0.20100
H1350       H  0.11665407  0.65319818  0.26224626     0.17700
H1351       H  0.13594017  0.68516806  0.15679822     0.17700
F1352       F  0.15224456  0.72112831  0.19756216    -0.20000
C1353       C  0.19045537  0.70181909  0.04216948    -0.21500
C1354       C  0.20978142  0.72020031  0.06077700    -0.09500
C1355       C  0.21436389  0.71247667  0.08886531     0.29300
C1356       C  0.19848806  0.68711791  0.09895802    -0.21500
C1357       C  0.17794446  0.66904177  0.08109718    -0.09500
C1358       C  0.17488583  0.67647466  0.05193596     0.29300
F1359       F  0.15603316  0.65966486  0.03330809    -0.20100
H1360       H  0.18671603  0.70741546  0.02036745     0.17700
H1361       H  0.20136939  0.68208409  0.12149281     0.17700
F1362       F  0.23267721  0.72988512  0.10755331    -0.20000
C1363       C  0.35991416  0.84064539  0.12106651    -0.21500
C1364       C  0.37875091  0.84419566  0.09970105    -0.09500
C1365       C  0.37143994  0.83721262  0.06957662     0.29300
C1366       C  0.34583189  0.82738423  0.06085367    -0.21500
C1367       C  0.32709576  0.82511654  0.08176234    -0.09500
C1368       C  0.33434880  0.83151722  0.11219084     0.29300
F1369       F  0.31700459  0.82976299  0.13315939    -0.20100
H1370       H  0.36531471  0.84635859  0.14431150     0.17700
H1371       H  0.34098989  0.82291116  0.03725565     0.17700
F1372       F  0.38928019  0.84067622  0.04837756    -0.20000
C1373       C  0.23642576  0.81573020  0.16802713    -0.21500
C1374       C  0.22633620  0.79706037  0.14506349    -0.09500
C1375       C  0.21409268  0.77090186  0.15319319     0.29300
C1376       C  0.21211093  0.76371381  0.18319077    -0.21500
C1377       C  0.22161835  0.78210181  0.20635213    -0.09500
C1378       C  0.23389092  0.80834687  0.19853903     0.29300
F1379       F  0.24335672  0.82678360  0.22017346    -0.20100
H1380       H  0.24606547  0.83597670  0.16239407     0.17700
H1381       H  0.20271490  0.74335214  0.18814866     0.17700
F1382       F  0.20416423  0.75190793  0.13220394    -0.20000
C1383       C  0.19394868  0.79038281  0.40896717    -0.21500
C1384       C  0.18980116  0.76722642  0.39606879    -0.09500
C1385       C  0.19101022  0.74885113  0.41453748     0.29300
C1386       C  0.19730382  0.75401366  0.44486399    -0.21500
C1387       C  0.20231062  0.77740473  0.45763031    -0.09500
C1388       C  0.19987692  0.79536531  0.43973577     0.29300
F1389       F  0.20472252  0.81822077  0.45146508    -0.20100
H1390       H  0.19300310  0.80472762  0.39513991     0.17700
H1391       H  0.19907318  0.73991618  0.45827708     0.17700
F1392       F  0.18771887  0.72648204  0.40293922    -0.20000
C1393       C  0.02702878  0.85816754  0.03618281    -0.21500
C1394       C  0.04291938  0.88248193  0.02328550    -0.09500
C1395       C  0.03249725  0.89134388  0.00106113     0.29300
C1396       C  0.00726822  0.87512476  0.99039368    -0.21500
C1397       C  0.99227636  0.84997820  0.00178968    -0.09500
C1398       C  0.00213266  0.84212675  0.02564290     0.29300
F1399       F  0.98808064  0.81827923  0.03783218    -0.20100
H1400       H  0.03436338  0.85099478  0.05367166     0.17700
H1401       H  0.99850163  0.88480829  0.47438167     0.17700
F1402       F  0.04729884  0.91465979  0.98795683    -0.20000
C1403       C  0.21229284  0.90242205  0.03975471    -0.21500
C1404       C  0.18531313  0.89002972  0.04180364    -0.09500
C1405       C  0.17163447  0.86383790  0.04979653     0.29300
C1406       C  0.18433810  0.85008418  0.05384054    -0.21500
C1407       C  0.21112335  0.86182163  0.05016001    -0.09500
C1408       C  0.22517076  0.88843275  0.04382428     0.29300
F1409       F  0.25116026  0.90081793  0.04106052    -0.20100
H1410       H  0.22326977  0.92261110  0.03389861     0.17700
H1411       H  0.17772041  0.83601862  0.57200739     0.17700
F1412       F  0.15061990  0.85783809  0.56730413    -0.20000
C1413       C  0.10546171  0.87981769  0.42563336    -0.21500
C1414       C  0.12768802  0.90184190  0.43561555    -0.09500
C1415       C  0.14458956  0.91964502  0.41400879     0.29300
C1416       C  0.13825707  0.91604380  0.38320012    -0.21500
C1417       C  0.11503764  0.89481347  0.37377162    -0.09500
C1418       C  0.09919097  0.87628438  0.39520957     0.29300
F1419       F  0.07704175  0.85495290  0.38683550    -0.20100
H1420       H  0.09235365  0.86552597  0.44154155     0.17700
H1421       H  0.15071709  0.93048547  0.36702836     0.17700
F1422       F  0.16638531  0.94118543  0.42268304    -0.20000
C1423       C  0.07881455  0.86827670  0.13547377    -0.21500
C1424       C  0.10363096  0.87857733  0.12343100    -0.09500
C1425       C  0.12338369  0.87986998  0.14155045     0.29300
C1426       C  0.11865718  0.87278581  0.17206273    -0.21500
C1427       C  0.09402862  0.86369836  0.18463561    -0.09500
C1428       C  0.07386088  0.86048581  0.16557623     0.29300
F1429       F  0.04961312  0.85130888  0.17631415    -0.20100
H1430       H  0.06332478  0.86692294  0.12167475     0.17700
H1431       H  0.13445493  0.87521223  0.18607571     0.17700
F1432       F  0.14758242  0.88967186  0.13036853    -0.20000
C1433       C  0.53243484  0.19798843  0.18026897    -0.21500
C1434       C  0.50893406  0.19083629  0.16573486    -0.09500
C1435       C  0.50304058  0.17614554  0.13904719     0.29300
C1436       C  0.51884639  0.16679164  0.12915128    -0.21500
C1437       C  0.54110674  0.17210633  0.14506828    -0.09500
C1438       C  0.54854204  0.18884384  0.16989835     0.29300
F1439       F  0.57008848  0.19451741  0.18562167    -0.20100
H1440       H  0.53765730  0.20944417  0.20064777     0.17700
H1441       H  0.51293530  0.15416581  0.10971195     0.17700
F1442       F  0.48106173  0.16913561  0.12351331    -0.20000
C1443       C  0.20561441  0.03348612  0.11552239    -0.21500
C1444       C  0.20289046  0.02658598  0.14618733    -0.09500
C1445       C  0.19266144  0.00053817  0.15391894     0.29300
C1446       C  0.18282409  0.98165970  0.13149096    -0.21500
C1447       C  0.18379443  0.98846041  0.10102478    -0.09500
C1448       C  0.19647560  0.01462674  0.09303677     0.29300
F1449       F  0.19768692  0.02188858  0.06378771    -0.20100
H1450       H  0.21354044  0.05341882  0.10901940     0.17700
H1451       H  0.17318717  0.96159652  0.13805232     0.17700
F1452       F  0.18988324  0.99305217  0.18324062    -0.20000
C1453       C  0.34173177  0.12378874  0.19449069    -0.21500
C1454       C  0.35696893  0.14519874  0.21285857    -0.09500
C1455       C  0.34512189  0.15226776  0.23514384     0.29300
C1456       C  0.31846659  0.13888730  0.23829198    -0.21500
C1457       C  0.30285523  0.11835196  0.21898861    -0.09500
C1458       C  0.31473494  0.11038449  0.19745789     0.29300
F1459       F  0.30033529  0.09097387  0.17803981    -0.20100
H1460       H  0.35061517  0.11837221  0.17683869     0.17700
H1461       H  0.30992186  0.14526625  0.25532640     0.17700
F1462       F  0.35936344  0.17280498  0.25323843    -0.20000
C1463       C  0.14065347  0.98850554  0.22410513    -0.21500
C1464       C  0.14930397  0.00798998  0.24595697    -0.09500
C1465       C  0.14137788  0.00129264  0.27609254     0.29300
C1466       C  0.12592494  0.97533227  0.28426819    -0.21500
C1467       C  0.11891078  0.95575344  0.26266806    -0.09500
C1468       C  0.12601851  0.96266433  0.23234471     0.29300
F1469       F  0.11939553  0.94440599  0.21072262    -0.20100
H1470       H  0.14652614  0.99323020  0.20074087     0.17700
H1471       H  0.12061850  0.97048089  0.30774207     0.17700
F1472       F  0.14889042  0.01976052  0.29758133    -0.20000
C1473       C  0.46533208  0.84301440  0.37436668    -0.21500
C1474       C  0.44564846  0.83984881  0.35483117    -0.09500
C1475       C  0.44186626  0.82645164  0.32762374     0.29300
C1476       C  0.45851262  0.81746710  0.31945387    -0.21500
C1477       C  0.47949408  0.82250637  0.33790492    -0.09500
C1478       C  0.48242222  0.83475253  0.36579486     0.29300
F1479       F  0.50265637  0.84000624  0.38388903    -0.20100
H1480       H  0.46863054  0.85361177  0.39525005     0.17700
H1481       H  0.45626950  0.80843731  0.29763200     0.17700
F1482       F  0.42303603  0.82336051  0.30830299    -0.20000
C1483       C  0.41157686  0.90557380  0.24732533    -0.21500
C1484       C  0.42896052  0.90790836  0.27006494    -0.09500
C1485       C  0.45149037  0.90771698  0.26159387     0.29300
C1486       C  0.45561177  0.90368421  0.23153820    -0.21500
C1487       C  0.43777402  0.90026298  0.20900557    -0.09500
C1488       C  0.41609293  0.90215927  0.21696613     0.29300
F1489       F  0.39857722  0.89926915  0.19578931    -0.20100
H1490       H  0.39416477  0.90579187  0.25315451     0.17700
H1491       H  0.47266801  0.90268965  0.22593716     0.17700
F1492       F  0.46889494  0.90985321  0.28254318    -0.20000
C1493       C  0.46562958  0.89408638  0.46747747    -0.21500
C1494       C  0.44388076  0.89596767  0.46030706    -0.09500
C1495       C  0.43175419  0.90223296  0.48327743     0.29300
C1496       C  0.44431270  0.91158995  0.01149019    -0.21500
C1497       C  0.46477168  0.90782918  0.01962540    -0.09500
C1498       C  0.47450509  0.89740035  0.49734777     0.29300
F1499       F  0.49640784  0.89677208  0.00377268    -0.20100
H1500       H  0.47515269  0.88909926  0.45017070     0.17700
H1501       H  0.43492849  0.91727015  0.02821797     0.17700
F1502       F  0.41086179  0.90449311  0.47718173    -0.20000
C1503       C  0.29765237  0.85324366  0.44760409    -0.21500
C1504       C  0.30571779  0.85998653  0.47763237    -0.09500
C1505       C  0.33107015  0.87987331  0.48316444     0.29300
C1506       C  0.34859741  0.89070114  0.45910628    -0.21500
C1507       C  0.34100252  0.88181796  0.42951313    -0.09500
C1508       C  0.31511275  0.86389242  0.42380648     0.29300
F1509       F  0.30738993  0.85454179  0.39550414    -0.20100
H1510       H  0.27818381  0.83820140  0.44265338     0.17700
H1511       H  0.36860689  0.90415092  0.46392579     0.17700
F1512       F  0.34009393  0.88760967  0.01281534    -0.20000
C1513       C  0.32066988  0.82562475  0.30325862    -0.21500
C1514       C  0.33038085  0.82227500  0.33057366    -0.09500
C1515       C  0.31473069  0.80059009  0.34850363     0.29300
C1516       C  0.28917999  0.78358908  0.34017797    -0.21500
C1517       C  0.27920969  0.78764971  0.31352984    -0.09500
C1518       C  0.29538749  0.80825463  0.29456088     0.29300
F1519       F  0.28607728  0.81269303  0.26877722    -0.20100
H1520       H  0.33231584  0.84235676  0.28934629     0.17700
H1521       H  0.27680196  0.76805894  0.35527009     0.17700
F1522       F  0.32331710  0.79726988  0.37547697    -0.20000
C1523       C  0.63289757  0.17273635  0.38671286    -0.21500
C1524       C  0.61399409  0.16683881  0.40892816    -0.09500
C1525       C  0.62139321  0.17120350  0.43938796     0.29300
C1526       C  0.64721314  0.18095879  0.44738948    -0.21500
C1527       C  0.66599460  0.18560078  0.42530046    -0.09500
C1528       C  0.65858064  0.18162051  0.39476524     0.29300
F1529       F  0.67597776  0.18560371  0.37276415    -0.20100
H1530       H  0.62748521  0.16908672  0.36315702     0.17700
H1531       H  0.65223471  0.18342981  0.47109812     0.17700
F1532       F  0.60354904  0.16541573  0.46143990    -0.20000
C1533       C  0.44976927  0.01816243  0.38557759    -0.21500
C1534       C  0.47612454  0.03240355  0.37809342    -0.09500
C1535       C  0.48849723  0.01893255  0.36844676     0.29300
C1536       C  0.47498884  0.99210323  0.36688168    -0.21500
C1537       C  0.44872739  0.97797486  0.37403613    -0.09500
C1538       C  0.43607693  0.99119773  0.38318204     0.29300
F1539       F  0.41073371  0.97801192  0.39063090    -0.20100
H1540       H  0.43975122  0.02790045  0.39326490     0.17700
H1541       H  0.48503994  0.98229022  0.35953538     0.17700
F1542       F  0.51387332  0.03156291  0.36109439    -0.20000
C1543       C  0.52484814  0.08153974  0.99809221    -0.21500
C1544       C  0.52155772  0.09828361  0.48440651    -0.09500
C1545       C  0.51169862  0.10859431  0.50582332     0.29300
C1546       C  0.52656488  0.12171577  0.03176971    -0.21500
C1547       C  0.53281543  0.10465203  0.04566804    -0.09500
C1548       C  0.53122409  0.08403167  0.02887363     0.29300
F1549       F  0.53743434  0.06736732  0.04165707    -0.20100
H1550       H  0.54474010  0.08015480  0.47899158     0.17700
H1551       H  0.52776847  0.13777975  0.04428277     0.17700
F1552       F  0.49632882  0.11802993  0.49737144    -0.20000
C1553       C  0.56506456  0.10160621  0.28545479    -0.21500
C1554       C  0.55981898  0.12095937  0.29464191    -0.09500
C1555       C  0.55778369  0.13653712  0.27218090     0.29300
C1556       C  0.55920630  0.13179842  0.24176048    -0.21500
C1557       C  0.56338320  0.11196173  0.23243150    -0.09500
C1558       C  0.56712299  0.09728137  0.25452732     0.29300
F1559       F  0.57172620  0.07820781  0.24628630    -0.20100
H1560       H  0.56686979  0.08942407  0.30208323     0.17700
H1561       H  0.55710437  0.14393718  0.22529312     0.17700
F1562       F  0.55400613  0.15636979  0.27934420    -0.20000
C1563       C  0.46051604  0.14605047  0.32834484    -0.21500
C1564       C  0.47249372  0.13177954  0.32163002    -0.09500
C1565       C  0.47375938  0.12521082  0.29146371     0.29300
C1566       C  0.46505276  0.13475336  0.26815826    -0.21500
C1567       C  0.45536661  0.15119827  0.27479584    -0.09500
C1568       C  0.45192222  0.15562281  0.30524480     0.29300
F1569       F  0.44181220  0.17067581  0.31264766    -0.20100
H1570       H  0.45934376  0.15122119  0.35148485     0.17700
H1571       H  0.46795453  0.13112734  0.24493121     0.17700
F1572       F  0.48546102  0.11156434  0.28439804    -0.20000
C1573       C  0.50042167  0.19483718  0.39943636    -0.21500
C1574       C  0.51324072  0.18808498  0.42064852    -0.09500
C1575       C  0.51849432  0.19953986  0.44933591     0.29300
C1576       C  0.50913566  0.21606903  0.45724814    -0.21500
C1577       C  0.49440181  0.22112922  0.43660735    -0.09500
C1578       C  0.49117231  0.21120155  0.40714468     0.29300
F1579       F  0.47807092  0.21641482  0.38604700    -0.20100
H1580       H  0.49663093  0.18651648  0.37703761     0.17700
H1581       H  0.51197586  0.22353950  0.48002985     0.17700
F1582       F  0.53105840  0.19343355  0.47017752    -0.20000
C1583       C  0.50942315  0.34528105  0.39084119    -0.21500
C1584       C  0.51477905  0.33712949  0.41810221    -0.09500
C1585       C  0.53773099  0.35377503  0.43341229     0.29300
C1586       C  0.55381871  0.37898925  0.42278932    -0.21500
C1587       C  0.54710243  0.38772505  0.39686503    -0.09500
C1588       C  0.52548326  0.37020538  0.38015802     0.29300
F1589       F  0.51902537  0.37774057  0.35434819    -0.20100
H1590       H  0.49190230  0.33276897  0.37868552     0.17700
H1591       H  0.57027572  0.39222917  0.43609664     0.17700
F1592       F  0.54315937  0.34662306  0.46017557    -0.20000
C1593       C  0.41230435  0.21817458  0.34695669    -0.21500
C1594       C  0.42803063  0.24312655  0.35848769    -0.09500
C1595       C  0.44455462  0.26280487  0.33845279     0.29300
C1596       C  0.44617747  0.25730091  0.30820516    -0.21500
C1597       C  0.43108031  0.23233048  0.29699565    -0.09500
C1598       C  0.41363187  0.21283126  0.31636870     0.29300
F1599       F  0.39915889  0.18836036  0.30620709    -0.20100
H1600       H  0.39944099  0.20265034  0.36175641     0.17700
H1601       H  0.45977678  0.27253551  0.29355886     0.17700
F1602       F  0.46017223  0.28720491  0.34823055    -0.20000
C1603       C  0.43746869  0.20106929  0.05796254    -0.21500
C1604       C  0.43289821  0.22043297  0.04758397    -0.09500
C1605       C  0.42317231  0.23157708  0.06770255     0.29300
C1606       C  0.42009738  0.22501267  0.09825276    -0.21500
C1607       C  0.42607450  0.20674062  0.10920765    -0.09500
C1608       C  0.43400005  0.19414792  0.08859636     0.29300
F1609       F  0.44008170  0.17647330  0.09833969    -0.20100
H1610       H  0.44495794  0.19228595  0.04270928     0.17700
H1611       H  0.41348798  0.23460493  0.11349928     0.17700
F1612       F  0.41692684  0.24909720  0.05776590    -0.20000
C1613       C  0.16768576  0.03726006  0.45855869    -0.21500
C1614       C  0.16323718  0.05399049  0.47635910    -0.09500
C1615       C  0.14952016  0.04438983  0.00835919     0.29300
C1616       C  0.14050353  0.01884418  0.01725563    -0.21500
C1617       C  0.14527842  0.00266678  0.49494355    -0.09500
C1618       C  0.15875113  0.01189700  0.46750904     0.29300
F1619       F  0.16482736  0.99706165  0.45016609    -0.20100
H1620       H  0.17940197  0.04432608  0.43833315     0.17700
H1621       H  0.13258146  0.01302736  0.03975555     0.17700
F1622       F  0.14819755  0.06098268  0.02807896    -0.20000
C1623       C  0.31615148  0.21824516  0.45163167    -0.21500
C1624       C  0.30378954  0.19627513  0.47004339    -0.09500
C1625       C  0.31911581  0.18883285  0.48641668     0.29300
C1626       C  0.34583467  0.20233010  0.48347214    -0.21500
C1627       C  0.35829085  0.22366637  0.46418407    -0.09500
C1628       C  0.34313590  0.23180846  0.44859570     0.29300
F1629       F  0.35421543  0.25232910  0.42970025    -0.20100
H1630       H  0.30489770  0.22442185  0.43880797     0.17700
H1631       H  0.35677709  0.19564444  0.49607073     0.17700
F1632       F  0.30832990  0.16825655  0.50530468    -0.20000
C1633       C  0.11750792  0.17075816  0.99065106    -0.21500
C1634       C  0.11674770  0.17632663  0.02122691    -0.09500
C1635       C  0.13123060  0.17125242  0.04207785     0.29300
C1636       C  0.14735989  0.16209862  0.03202353    -0.21500
C1637       C  0.14883815  0.15737891  0.00116177    -0.09500
C1638       C  0.13308520  0.16109481  0.98066981     0.29300
F1639       F  0.14094786  0.16468982  0.44697217    -0.20100
H1640       H  0.10673927  0.17489806  0.97423203     0.17700
H1641       H  0.15936731  0.15954701  0.04821554     0.17700
F1642       F  0.13139213  0.17711211  0.07170498    -0.20000
C1643       C  0.22727109  0.15449526  0.08557652    -0.21500
C1644       C  0.23294145  0.13990944  0.06541465    -0.09500
C1645       C  0.23959123  0.12224384  0.07705293     0.29300
C1646       C  0.23943824  0.11850109  0.10817538    -0.21500
C1647       C  0.23229152  0.13195814  0.12805981    -0.09500
C1648       C  0.22653610  0.15025754  0.11671327     0.29300
F1649       F  0.21912867  0.16313782  0.13565412    -0.20100
H1650       H  0.22208138  0.16818919  0.07715274     0.17700
H1651       H  0.24346816  0.10399774  0.11668849     0.17700
F1652       F  0.24566985  0.10816687  0.05835710    -0.20000
C1653       C  0.24448308  0.13251212  0.32703649    -0.21500
C1654       C  0.23263135  0.10754195  0.31506848    -0.09500
C1655       C  0.22042058  0.08631810  0.33460267     0.29300
C1656       C  0.21883833  0.09014459  0.36545726    -0.21500
C1657       C  0.23014118  0.11509543  0.37726465    -0.09500
C1658       C  0.24351604  0.13630580  0.35803488     0.29300
F1659       F  0.25393806  0.16060868  0.36891421    -0.20100
H1660       H  0.25395710  0.14906265  0.31225214     0.17700
H1661       H  0.20802358  0.07365579  0.38003657     0.17700
F1662       F  0.20843490  0.06197534  0.32359256    -0.20000
C1663       C  0.46549571  0.65710483  0.06371127    -0.21500
C1664       C  0.48227526  0.67621966  0.08387896    -0.09500
C1665       C  0.48171984  0.66980565  0.11458545     0.29300
C1666       C  0.46604173  0.64440050  0.12428394    -0.21500
C1667       C  0.45113668  0.62503781  0.10348337    -0.09500
C1668       C  0.45032004  0.63166210  0.07330780     0.29300
F1669       F  0.43576790  0.61327515  0.05283760    -0.20100
H1670       H  0.46546602  0.66143644  0.03998894     0.17700
H1671       H  0.46698239  0.63953403  0.14760788     0.17700
F1672       F  0.49727677  0.68774877  0.13492605    -0.20000
C1673       C  0.32249088  0.53645361  0.09838000    -0.21500
C1674       C  0.33802222  0.52766917  0.08500709    -0.09500
C1675       C  0.32868737  0.51161586  0.05963966     0.29300
C1676       C  0.30380387  0.50282535  0.04942204    -0.21500
C1677       C  0.28723976  0.50939776  0.06432777    -0.09500
C1678       C  0.29711400  0.52733864  0.08811036     0.29300
F1679       F  0.28173924  0.53429003  0.10294411    -0.20100
H1680       H  0.32924564  0.54873149  0.11808195     0.17700
H1681       H  0.29691702  0.48945725  0.03067792     0.17700
F1682       F  0.34313839  0.50301518  0.04577074    -0.20000
C1683       C  0.41555713  0.52537441  0.99923476    -0.21500
C1684       C  0.43302464  0.54084046  0.02174163    -0.09500
C1685       C  0.45528307  0.56367107  0.01305986     0.29300
C1686       C  0.46167768  0.56930026  0.48233001    -0.21500
C1687       C  0.44257810  0.55586502  0.46062128    -0.09500
C1688       C  0.41969783  0.53378483  0.46945712     0.29300
F1689       F  0.40087426  0.52033119  0.44903337    -0.20100
H1690       H  0.39821404  0.50776105  0.00536082     0.17700
H1691       H  0.47957461  0.58622974  0.47594660     0.17700
F1692       F  0.47233738  0.57965056  0.03390523    -0.20000
C1693       C  0.48406362  0.59788085  0.25019506    -0.21500
C1694       C  0.47388212  0.57768652  0.27150346    -0.09500
C1695       C  0.45669364  0.55259327  0.26130685     0.29300
C1696       C  0.44835915  0.54830343  0.23135785    -0.21500
C1697       C  0.45734530  0.56862817  0.21061833    -0.09500
C1698       C  0.47608655  0.59337719  0.21991450     0.29300
F1699       F  0.48531950  0.61344084  0.20034198    -0.20100
H1700       H  0.49748832  0.61736708  0.25718512     0.17700
H1701       H  0.43425271  0.52901468  0.22445489     0.17700
F1702       F  0.44679811  0.53225785  0.28051175    -0.20000
C1703       C  0.62361782  0.46009012  0.18681204    -0.21500
C1704       C  0.61688350  0.45601884  0.15620911    -0.09500
C1705       C  0.63647279  0.46614487  0.13414698     0.29300
C1706       C  0.66221634  0.48192997  0.14276629    -0.21500
C1707       C  0.66863499  0.48697853  0.17339069    -0.09500
C1708       C  0.64928023  0.47522451  0.19537237     0.29300
F1709       F  0.65498977  0.48014145  0.22511715    -0.20100
H1710       H  0.60882418  0.45249997  0.20410909     0.17700
H1711       H  0.67689839  0.49134715  0.12557663     0.17700
F1712       F  0.63053917  0.46281613  0.10433578    -0.20000
C1713       C  0.52723130  0.42312596  0.28625962    -0.21500
C1714       C  0.53891710  0.44801632  0.29807097    -0.09500
C1715       C  0.54354833  0.46863877  0.27913710     0.29300
C1716       C  0.53770744  0.46437849  0.24827785    -0.21500
C1717       C  0.52679231  0.43944525  0.23611448    -0.09500
C1718       C  0.52094879  0.41872776  0.25576558     0.29300
F1719       F  0.51065904  0.39430217  0.24533754    -0.20100
H1720       H  0.52382729  0.40709423  0.30055162     0.17700
H1721       H  0.54242909  0.48065108  0.23376480     0.17700
F1722       F  0.55542172  0.49302558  0.29000416    -0.20000
C1723       C  0.54085967  0.45183464  0.49495425    -0.21500
C1724       C  0.56499315  0.47134269  0.48485999    -0.09500
C1725       C  0.58538969  0.48264954  0.00539260     0.29300
C1726       C  0.58201990  0.47558673  0.03606461    -0.21500
C1727       C  0.55833318  0.45543322  0.04647153    -0.09500
C1728       C  0.53771502  0.44335802  0.02618646     0.29300
F1729       F  0.51433077  0.42435396  0.03567098    -0.20100
H1730       H  0.52534155  0.44133986  0.47911126     0.17700
H1731       H  0.59818641  0.48496812  0.05132337     0.17700
F1732       F  0.60805210  0.50399448  0.49752184    -0.20000
C1733       C  0.46991521  0.32933079  0.07950816    -0.21500
C1734       C  0.47151035  0.35330537  0.07707494    -0.09500
C1735       C  0.46167309  0.35889240  0.05123626     0.29300
C1736       C  0.45254004  0.34140362  0.02701342    -0.21500
C1737       C  0.45349745  0.31854455  0.02852537    -0.09500
C1738       C  0.46149861  0.31235110  0.05539838     0.29300
F1739       F  0.46374754  0.29106791  0.05734672    -0.20100
H1740       H  0.47749128  0.32471186  0.09920793     0.17700
H1741       H  0.44701358  0.34675473  0.00621316     0.17700
F1742       F  0.46346332  0.38217228  0.04811240    -0.20000
C1743       C  0.48355722  0.50383149  0.12313640    -0.21500
C1744       C  0.45655388  0.49062010  0.12263927    -0.09500
C1745       C  0.44316473  0.46359207  0.12419952     0.29300
C1746       C  0.45668923  0.45026839  0.12730344    -0.21500
C1747       C  0.48376473  0.46358180  0.12793591    -0.09500
C1748       C  0.49705322  0.49056959  0.12537095     0.29300
F1749       F  0.52314812  0.50434223  0.12608610    -0.20100
H1750       H  0.49433514  0.52460862  0.12158123     0.17700
H1751       H  0.44598727  0.42951769  0.12920484     0.17700
F1752       F  0.41706418  0.45012224  0.12367589    -0.20000
C1753       C  0.49644909  0.33361774  0.20332669    -0.21500
C1754       C  0.51567041  0.34410727  0.18106719    -0.09500
C1755       C  0.52576337  0.32907071  0.16970299     0.29300
C1756       C  0.51466217  0.30308270  0.17816830    -0.21500
C1757       C  0.49348934  0.29196984  0.19801595    -0.09500
C1758       C  0.48551249  0.30793219  0.21182285     0.29300
F1759       F  0.46625606  0.29842519  0.23262918    -0.20100
H1760       H  0.48867396  0.34494134  0.21279448     0.17700
H1761       H  0.52142980  0.29127948  0.16766237     0.17700
F1762       F  0.54454853  0.33868385  0.14835674    -0.20000
C1763       C  0.22280280  0.52517406  0.32593284    -0.21500
C1764       C  0.21552962  0.50737103  0.30225070    -0.09500
C1765       C  0.19251291  0.50025600  0.28668077     0.29300
C1766       C  0.17570074  0.50826595  0.29681073    -0.21500
C1767       C  0.18163818  0.52388925  0.32233447    -0.09500
C1768       C  0.20593344  0.53349512  0.33594736     0.29300
F1769       F  0.21211797  0.54854736  0.36088094    -0.20100
H1770       H  0.24033922  0.53079482  0.33833490     0.17700
H1771       H  0.15721674  0.50087989  0.28586017     0.17700
F1772       F  0.18526182  0.48380820  0.26301371    -0.20000
C1773       C  0.23311215  0.46646941  0.40670013    -0.21500
C1774       C  0.23447743  0.44543143  0.39551226    -0.09500
C1775       C  0.23332941  0.42683592  0.41572400     0.29300
C1776       C  0.23039479  0.42921672  0.44677642    -0.21500
C1777       C  0.22939538  0.45055551  0.45797313    -0.09500
C1778       C  0.23095304  0.46926921  0.43754929     0.29300
F1779       F  0.22974765  0.49007755  0.44723752    -0.20100
H1780       H  0.23411179  0.48104905  0.39148008     0.17700
H1781       H  0.22920309  0.41460352  0.46205173     0.17700
F1782       F  0.23437466  0.40612238  0.40538914    -0.20000
C1783       C  0.18860162  0.44447366  0.16572435    -0.21500
C1784       C  0.20043215  0.43536005  0.14582566    -0.09500
C1785       C  0.21579150  0.42586945  0.15753719     0.29300
C1786       C  0.22013621  0.42664697  0.18862923    -0.21500
C1787       C  0.20983778  0.43752917  0.20818879    -0.09500
C1788       C  0.19361267  0.44596507  0.19664347     0.29300
F1789       F  0.18355334  0.45669704  0.21507799    -0.20100
H1790       H  0.17673110  0.45189268  0.15712692     0.17700
H1791       H  0.23277579  0.42017982  0.19724996     0.17700
F1792       F  0.22707887  0.41647100  0.13886858    -0.20000
C1793       C  0.34057601  0.47171057  0.23735564    -0.21500
C1794       C  0.31463555  0.46168859  0.22956797    -0.09500
C1795       C  0.30759869  0.45765812  0.19893469     0.29300
C1796       C  0.32649321  0.46603695  0.17655079    -0.21500
C1797       C  0.35255513  0.47869208  0.18437883    -0.09500
C1798       C  0.35952434  0.48055652  0.21485911     0.29300
F1799       F  0.38467103  0.49359038  0.22291839    -0.20100
H1800       H  0.34644441  0.47524979  0.26078223     0.17700
H1801       H  0.32089921  0.46502169  0.15313219     0.17700
F1802       F  0.28268979  0.44775154  0.19059030    -0.20000
C1803       C  0.36540052  0.53920848  0.37085546    -0.21500
C1804       C  0.38473328  0.55437092  0.34991555    -0.09500
C1805       C  0.37796891  0.55394856  0.31951283     0.29300
C1806       C  0.35253730  0.53788659  0.31006936    -0.21500
C1807       C  0.33342059  0.52131742  0.33057379    -0.09500
C1808       C  0.34003499  0.52260927  0.36131536     0.29300
F1809       F  0.32224021  0.50720316  0.38200281    -0.20100
H1810       H  0.37027391  0.53904893  0.39434420     0.17700
H1811       H  0.34816927  0.53732557  0.28628759     0.17700
F1812       F  0.39619484  0.56848585  0.29875495    -0.20000
C1813       C  0.02758316  0.16997730  0.28718841    -0.21500
C1814       C  0.04749730  0.17970526  0.26557353    -0.09500
C1815       C  0.04097440  0.17820696  0.23485530     0.29300
C1816       C  0.01521397  0.16753090  0.22608707    -0.21500
C1817       C  0.99539299  0.15896217  0.24769909    -0.09500
C1818       C  0.00180433  0.16014110  0.27842719     0.29300
F1819       F  0.98322460  0.15213563  0.29995340    -0.20100
H1820       H  0.03213214  0.17124519  0.31098484     0.17700
H1821       H  0.01087200  0.16720992  0.20231965     0.17700
F1822       F  0.05959751  0.18756758  0.21328088    -0.20000
C1823       C  0.19542693  0.35313200  0.32079598    -0.21500
C1824       C  0.21777217  0.36775070  0.30339776    -0.09500
C1825       C  0.22622710  0.35483720  0.28418340     0.29300
C1826       C  0.21155076  0.32798523  0.28112603    -0.21500
C1827       C  0.18833255  0.31356132  0.29729748    -0.09500
C1828       C  0.18092843  0.32647212  0.31795130     0.29300
F1829       F  0.15928662  0.31352314  0.33495978    -0.20100
H1830       H  0.18870996  0.36246041  0.33630931     0.17700
H1831       H  0.21793240  0.31859737  0.26527974     0.17700
F1832       F  0.24783057  0.36816650  0.26723140    -0.20000
C1833       C  0.17450557  0.15241246  0.21404659    -0.21500
C1834       C  0.16632876  0.12858819  0.22798551    -0.09500
C1835       C  0.14602781  0.11939753  0.24909217     0.29300
C1836       C  0.13589812  0.13508459  0.25800489    -0.21500
C1837       C  0.14584552  0.15989552  0.24576542    -0.09500
C1838       C  0.16439659  0.16783233  0.22265755     0.29300
F1839       F  0.17410741  0.19141325  0.20978820    -0.20100
H1840       H  0.18972343  0.15970697  0.19725886     0.17700
H1841       H  0.12183813  0.12869954  0.27608476     0.17700
F1842       F  0.13759329  0.09639986  0.26291477    -0.20000
C1843       C  0.19036252  0.22321987  0.38019179    -0.21500
C1844       C  0.19093960  0.21631440  0.35006725    -0.09500
C1845       C  0.20190773  0.20112005  0.34308093     0.29300
C1846       C  0.21005403  0.19106206  0.36613754    -0.21500
C1847       C  0.20741847  0.19600960  0.39656699    -0.09500
C1848       C  0.19875657  0.21332768  0.40339064     0.29300
F1849       F  0.19569182  0.21842058  0.43247834    -0.20100
H1850       H  0.18144011  0.23447658  0.38595393     0.17700
H1851       H  0.21676828  0.17791583  0.36027472     0.17700
F1852       F  0.20247190  0.19403661  0.31409969    -0.20000
C1853       C  0.13907478  0.23665208  0.13655044    -0.21500
C1854       C  0.11514035  0.23432123  0.12996810    -0.09500
C1855       C  0.10132889  0.23799233  0.15330546     0.29300
C1856       C  0.11086677  0.24301525  0.18268856    -0.21500
C1857       C  0.13405375  0.24390975  0.18970592    -0.09500
C1858       C  0.14834583  0.24105848  0.16626083     0.29300
F1859       F  0.17101936  0.24212396  0.17211256    -0.20100
H1860       H  0.15008566  0.23400835  0.11893703     0.17700
H1861       H  0.09938389  0.24494135  0.20029874     0.17700
F1862       F  0.07835738  0.23640054  0.14784286    -0.20000
C1863       C  0.12523714  0.24222618  0.39905749    -0.21500
C1864       C  0.10537667  0.23415524  0.37780623    -0.09500
C1865       C  0.08187323  0.23184437  0.38676081     0.29300
C1866       C  0.07797099  0.23624382  0.41692381    -0.21500
C1867       C  0.09758806  0.24352446  0.43858400    -0.09500
C1868       C  0.12160354  0.24720353  0.42900177     0.29300
F1869       F  0.14123087  0.25433786  0.44878149    -0.20100
H1870       H  0.14360010  0.24435893  0.39248557     0.17700
H1871       H  0.05926156  0.23318851  0.42352153     0.17700
F1872       F  0.06220452  0.22382373  0.36684998    -0.20000
O1873       O  0.13003882  0.25061711  0.74122770    -0.85500
O1874       O  0.08733687  0.21029306  0.76490101    -0.82600
C1875       C  0.07316663  0.18924223  0.77793015     0.97900
O1876       O  0.08197267  0.18184731  0.79916738    -0.82600
O1877       O  0.11814805  0.17121217  0.77237109    -0.85200
C1878       C  0.13909653  0.17535136  0.76062363     1.02500
O1879       O  0.15928458  0.19713584  0.76315136    -0.78000
O1880       O  0.15020954  0.22972440  0.72956289    -0.78200
C1881       C  0.13769704  0.24043051  0.72170269     1.02400
O1882       O  0.14713555  0.27021176  0.80201611    -0.85500
O1883       O  0.10209040  0.23087325  0.82580232    -0.82600
C1884       C  0.10880199  0.22296965  0.84869463     0.98000
O1885       O  0.11955016  0.20974837  0.84544349    -0.82600
O1886       O  0.15200870  0.19510478  0.82189156    -0.85200
C1887       C  0.17359739  0.21508112  0.82605151     1.02400
O1888       O  0.18049949  0.23505997  0.81042590    -0.78000
O1889       O  0.17644913  0.27015543  0.77286745    -0.78200
C1890       C  0.16921992  0.28206768  0.79020193     1.02400
Cr1891     Cr  0.11790643  0.23913988  0.78383677     1.93700
Cr1892     Cr  0.11889163  0.19174975  0.80795841     1.93200
Cr1893     Cr  0.16429567  0.23226506  0.77040496     1.39100
O1894       O  0.13359322  0.22101228  0.78725070    -1.23300
O1895       O  0.22442877  0.44656208  0.84535766    -0.85500
O1896       O  0.21338789  0.46593376  0.79515148    -0.82600
C1897       C  0.22759958  0.48960893  0.80023235     0.97900
O1898       O  0.25177473  0.49929284  0.79990937    -0.82600
O1899       O  0.29983242  0.50147864  0.79496966    -0.85200
C1900       C  0.30820906  0.49804075  0.81960989     1.02500
O1901       O  0.29578647  0.47709772  0.83378600    -0.78000
O1902       O  0.25227028  0.43334107  0.85303005    -0.78200
C1903       C  0.23730700  0.44091652  0.86308534     1.02400
O1904       O  0.21608793  0.40306358  0.81261648    -0.85500
O1905       O  0.21407628  0.42697575  0.75917837    -0.82600
C1906       C  0.22041981  0.44441391  0.73950639     0.98000
O1907       O  0.23570124  0.46775346  0.74600751    -0.82600
O1908       O  0.28053625  0.46726531  0.74543407    -0.85200
C1909       C  0.29557700  0.45909892  0.75199846     1.02400
O1910       O  0.29695683  0.45233802  0.77871773    -0.78000
O1911       O  0.25233426  0.40790728  0.79621941    -0.78200
C1912       C  0.22903272  0.39329260  0.80323825     1.02400
Cr1913     Cr  0.21954771  0.43685702  0.80257318     1.93700
Cr1914     Cr  0.26604382  0.48195498  0.77374315     1.93200
Cr1915     Cr  0.27270582  0.44339058  0.81404946     1.39100
O1916       O  0.25315700  0.45426880  0.79696771    -1.23300
O1917       O  0.53197869  0.45025247  0.68530054    -0.85500
O1918       O  0.57316882  0.44894700  0.66139047    -0.82600
C1919       C  0.58669782  0.44243558  0.64630953     0.97900
O1920       O  0.57721524  0.42786134  0.62375495    -0.82600
O1921       O  0.53897468  0.38129681  0.64974509    -0.85200
C1922       C  0.51739957  0.36515475  0.66094709     1.02500
O1923       O  0.49798381  0.36806849  0.65784309    -0.78000
O1924       O  0.50783341  0.40870334  0.69305808    -0.78200
C1925       C  0.52121706  0.43118631  0.70313213     1.02400
O1926       O  0.51855655  0.45802524  0.62519551    -0.85500
O1927       O  0.56109096  0.45989036  0.60074461    -0.82600
C1928       C  0.55252074  0.44604985  0.57717965     0.98000
O1929       O  0.54040676  0.42191753  0.57918995    -0.82600
O1930       O  0.50637618  0.37451742  0.60041783    -0.85200
C1931       C  0.48540847  0.37400513  0.59571755     1.02400
O1932       O  0.47971555  0.38837185  0.61054399    -0.78000
O1933       O  0.48574507  0.42739319  0.64953541    -0.78200
C1934       C  0.49601204  0.44846052  0.63523996     1.02400
Cr1935     Cr  0.54487424  0.45170225  0.64271256     1.93700
Cr1936     Cr  0.53993180  0.40272330  0.61505221     1.93200
Cr1937     Cr  0.49514487  0.39964266  0.65147406     1.39100
O1938       O  0.52664210  0.41812890  0.63659056    -1.23300
O1939       O  0.44695296  0.54332219  0.57334939    -0.85500
O1940       O  0.44569929  0.58414479  0.59766744    -0.82600
C1941       C  0.43882848  0.59742940  0.61264570     0.97900
O1942       O  0.42524205  0.58825520  0.63618980    -0.82600
O1943       O  0.37817387  0.55156335  0.61175400    -0.85200
C1944       C  0.36209906  0.53088961  0.59900724     1.02500
O1945       O  0.36466043  0.51120495  0.59979389    -0.78000
O1946       O  0.40569066  0.52196221  0.56370502    -0.78200
C1947       C  0.42864110  0.53478510  0.55460786     1.02400
O1948       O  0.45328310  0.52818082  0.63264018    -0.85500
O1949       O  0.45667180  0.57160828  0.65740600    -0.82600
C1950       C  0.44348302  0.56261604  0.68133677     0.98000
O1951       O  0.41931573  0.55000754  0.68016710    -0.82600
O1952       O  0.37119553  0.51709559  0.65932332    -0.85200
C1953       C  0.36987704  0.49553055  0.66144878     1.02400
O1954       O  0.38327975  0.48988133  0.64461324    -0.78000
O1955       O  0.42276323  0.49714299  0.60602538    -0.78200
C1956       C  0.44311750  0.50593358  0.62151912     1.02400
Cr1957     Cr  0.44809781  0.55553646  0.61578742     1.93700
Cr1958     Cr  0.39976108  0.55089651  0.64508132     1.93200
Cr1959     Cr  0.39560059  0.50731738  0.60485525     1.39100
O1960       O  0.41446421  0.53783591  0.62181298    -1.23300
O1961       O  0.22382944  0.12221422  0.51463702    -0.85500
O1962       O  0.20128259  0.08976609  0.96780287    -0.82600
C1963       C  0.17768805  0.08091086  0.97362353     0.97900
O1964       O  0.16808688  0.09537815  0.97197216    -0.82600
O1965       O  0.16561369  0.14060087  0.96462616    -0.85200
C1966       C  0.16871635  0.15166714  0.98977538     1.02500
O1967       O  0.18948021  0.15967650  0.00394628    -0.78000
O1968       O  0.23515614  0.16299139  0.52147345    -0.78200
C1969       C  0.22975182  0.14111887  0.53194829     1.02400
O1970       O  0.26476936  0.15729521  0.97831306    -0.85500
O1971       O  0.23895389  0.12827841  0.92783652    -0.82600
C1972       C  0.22099649  0.11615861  0.90916244     0.98000
O1973       O  0.19789091  0.10780271  0.91703190    -0.82600
O1974       O  0.19958044  0.15391829  0.91460352    -0.85200
C1975       C  0.20641409  0.17694248  0.92079807     1.02400
O1976       O  0.21218436  0.18532721  0.94760044    -0.78000
O1977       O  0.25797359  0.18811983  0.96433807    -0.78200
C1978       C  0.27337080  0.18034318  0.97065562     1.02400
Cr1979     Cr  0.23098716  0.12574430  0.97187200     1.93700
Cr1980     Cr  0.18483227  0.12557772  0.94408643     1.93200
Cr1981     Cr  0.22288388  0.17174294  0.98298961     1.39100
O1982       O  0.21282671  0.14116062  0.96663128    -1.23300
O1983       O  0.41507473  0.22974371  0.90995254    -0.85500
O1984       O  0.45334485  0.22311095  0.93389463    -0.82600
C1985       C  0.47405699  0.22898465  0.94714564     0.97900
O1986       O  0.48300459  0.24626026  0.96709021    -0.82600
O1987       O  0.49525646  0.29403545  0.94262058    -0.85200
C1988       C  0.49160150  0.31156612  0.93244395     1.02500
O1989       O  0.47056546  0.31100671  0.93738150    -0.78000
O1990       O  0.43758763  0.27139775  0.90144725    -0.78200
C1991       C  0.42608024  0.24857904  0.89174524     1.02400
O1992       O  0.39534100  0.22609697  0.97130821    -0.85500
O1993       O  0.43207099  0.21711406  0.99384945    -0.82600
C1994       C  0.44383028  0.23292005  0.51726596     0.98000
O1995       O  0.45768813  0.25693367  0.51509900    -0.82600
O1996       O  0.47230720  0.30318632  0.99442059    -0.85200
C1997       C  0.45237906  0.30423648  0.00108194     1.02400
O1998       O  0.43258601  0.29329155  0.98459123    -0.78000
O1999       O  0.39679845  0.25694400  0.94422851    -0.78200
C2000       C  0.38421806  0.23722091  0.96042010     1.02400
Cr2001     Cr  0.42547865  0.22673803  0.95254844     1.93700
Cr2002     Cr  0.47443304  0.27349216  0.97786856     1.93200
Cr2003     Cr  0.43503817  0.28149845  0.94313571     1.39100
O2004       O  0.44507863  0.26041124  0.95759990    -1.23300
O2005       O  0.56897273  0.13099229  0.91086532    -0.85500
O2006       O  0.52556116  0.09005332  0.93298557    -0.82600
C2007       C  0.51502866  0.09855240  0.95106063     0.97900
O2008       O  0.50157534  0.10769349  0.94134056    -0.82600
O2009       O  0.49235180  0.13957912  0.90737789    -0.85200
C2010       C  0.51118791  0.16144055  0.91378179     1.02500
O2011       O  0.53370568  0.16730388  0.90561821    -0.78000
O2012       O  0.57385560  0.16113776  0.87955764    -0.78200
C2013       C  0.58306678  0.15244146  0.89873325     1.02400
O2014       O  0.55540331  0.11145107  0.84885851    -0.85500
O2015       O  0.51197929  0.07102039  0.87109121    -0.82600
C2016       C  0.48963666  0.05803091  0.88152653     0.98000
O2017       O  0.47999371  0.06883426  0.89671300    -0.82600
O2018       O  0.47714878  0.10424874  0.85793218    -0.85200
C2019       C  0.48371023  0.12521207  0.84454886     1.02400
O2020       O  0.50416605  0.14556159  0.85182597    -0.78000
O2021       O  0.54005977  0.13521689  0.83125562    -0.78200
C2022       C  0.54977427  0.12124137  0.82678063     1.02400
Cr2023     Cr  0.53914779  0.10227256  0.89064199     1.93700
Cr2024     Cr  0.49023573  0.10595094  0.89963126     1.93200
Cr2025     Cr  0.53704664  0.15000817  0.86885361     1.39100
O2026       O  0.52236614  0.11939641  0.88652792    -1.23300
O2027       O  0.43827751  0.87198861  0.84672244    -0.85500
O2028       O  0.43934818  0.91405500  0.82193171    -0.82600
C2029       C  0.42121540  0.90504688  0.80293931     0.97900
O2030       O  0.39818071  0.89519250  0.81170870    -0.82600
O2031       O  0.35661580  0.86398099  0.84647827    -0.85200
C2032       C  0.35393803  0.84169085  0.84536137     1.02500
O2033       O  0.37012122  0.83702399  0.85774204    -0.78000
O2034       O  0.41672362  0.84734162  0.88469244    -0.78200
C2035       C  0.43192610  0.85244002  0.86266944     1.02400
O2036       O  0.44745990  0.89532824  0.90638367    -0.85500
O2037       O  0.44480889  0.93538548  0.88119623    -0.82600
C2038       C  0.43478660  0.94755970  0.87014906     0.98000
O2039       O  0.41428986  0.93609289  0.85496107    -0.82600
O2040       O  0.37437422  0.90293006  0.89284388    -0.85200
C2041       C  0.36055979  0.88336292  0.90882647     1.02400
O2042       O  0.36162779  0.86309572  0.90551242    -0.78000
O2043       O  0.40948053  0.87862655  0.92798318    -0.78200
C2044       C  0.43365928  0.89051960  0.92989621     1.02400
Cr2045     Cr  0.43980678  0.90288133  0.86444183     1.93700
Cr2046     Cr  0.38735847  0.89876695  0.85284476     1.93200
Cr2047     Cr  0.39080258  0.85865724  0.89212966     1.39100
O2048       O  0.40602164  0.88683175  0.86960893    -1.23300
O2049       O  0.19948605  0.12446456  0.71628156    -0.85500
O2050       O  0.22106968  0.11376225  0.76560391    -0.82600
C2051       C  0.22688974  0.10039802  0.78236016     0.97900
O2052       O  0.23199785  0.08392495  0.77130917    -0.82600
O2053       O  0.18702720  0.04225498  0.75243700    -0.85200
C2054       C  0.16625609  0.02983192  0.73808091     1.02500
O2055       O  0.16347765  0.03797913  0.71287480    -0.78000
O2056       O  0.16604928  0.08574042  0.71946483    -0.78200
C2057       C  0.17573407  0.10982001  0.72117838     1.02400
O2058       O  0.23805787  0.12392445  0.67816821    -0.85500
O2059       O  0.26221776  0.12016366  0.72962633    -0.82600
C2060       C  0.27122242  0.10676701  0.71940471     0.98000
O2061       O  0.25618564  0.08327986  0.71391257    -0.82600
O2062       O  0.21060442  0.03994355  0.69687346    -0.85200
C2063       C  0.20483617  0.04230898  0.67002896     1.02400
O2064       O  0.19841273  0.05867845  0.66343261    -0.78000
O2065       O  0.19736729  0.10325441  0.66536839    -0.78200
C2066       C  0.22075702  0.11799826  0.65856514     1.02400
Cr2067     Cr  0.22881942  0.11806130  0.72186405     1.93700
Cr2068     Cr  0.22080234  0.06405063  0.73230457     1.93200
Cr2069     Cr  0.18332242  0.07229305  0.69240300     1.39100
O2070       O  0.21079197  0.08453236  0.71588197    -1.23300
O2071       O  0.45495186  0.25332989  0.70934449    -0.85500
O2072       O  0.43297637  0.22176166  0.66002112    -0.82600
C2073       C  0.42743272  0.20314082  0.64235765     0.97900
O2074       O  0.42140533  0.18104001  0.65258937    -0.82600
O2075       O  0.46559185  0.18284000  0.67002632    -0.85200
C2076       C  0.48702594  0.19124739  0.68277152     1.02500
O2077       O  0.49118449  0.20283487  0.70779578    -0.78000
O2078       O  0.48821010  0.24822397  0.70356412    -0.78200
C2079       C  0.47851350  0.26264976  0.70328598     1.02400
O2080       O  0.41722082  0.21461513  0.74786464    -0.85500
O2081       O  0.39164194  0.18682349  0.69606000    -0.82600
C2082       C  0.38245500  0.16404013  0.70500348     0.98000
O2083       O  0.39737115  0.15539519  0.70984613    -0.82600
O2084       O  0.44262139  0.15664977  0.72581562    -0.85200
C2085       C  0.44966771  0.16498433  0.75242871     1.02400
O2086       O  0.45772718  0.18819989  0.75890705    -0.78000
O2087       O  0.45830417  0.23361386  0.75902981    -0.78200
C2088       C  0.43527279  0.22644556  0.76662832     1.02400
Cr2089     Cr  0.42551027  0.21778463  0.70375218     1.93700
Cr2090     Cr  0.43250449  0.17140857  0.69107294     1.93200
Cr2091     Cr  0.47172072  0.21706252  0.73026758     1.39100
O2092       O  0.44332483  0.20188609  0.70823698    -1.23300
O2093       O  0.08027091  0.88436125  0.53464293    -0.85500
O2094       O  0.11246262  0.89391572  0.98712368    -0.82600
C2095       C  0.13120670  0.90655583  0.96939292     0.97900
O2096       O  0.15315000  0.92316168  0.97957383    -0.82600
O2097       O  0.14911887  0.96496964  0.49481435    -0.85200
C2098       C  0.14073175  0.97788317  0.50809748     1.02500
O2099       O  0.13018788  0.97085263  0.53372661    -0.78000
O2100       O  0.08515943  0.92272064  0.52955087    -0.78200
C2101       C  0.07083363  0.89857578  0.52898984     1.02400
O2102       O  0.11931393  0.88641275  0.57394468    -0.85500
O2103       O  0.14784327  0.88845825  0.52369048    -0.82600
C2104       C  0.17049373  0.90301826  0.53271218     0.98000
O2105       O  0.17880682  0.92677413  0.53578872    -0.82600
O2106       O  0.17589528  0.97026197  0.55018090    -0.85200
C2107       C  0.16800117  0.96874000  0.57707277     1.02400
O2108       O  0.14525743  0.95251476  0.58448418    -0.78000
O2109       O  0.09949099  0.90765780  0.58473087    -0.78200
C2110       C  0.10744097  0.89262399  0.59261031     1.02400
Cr2111     Cr  0.11625709  0.89082627  0.52991065     1.93700
Cr2112     Cr  0.16191470  0.94462694  0.51631360     1.93200
Cr2113     Cr  0.11622197  0.93747918  0.55611421     1.39100
O2114       O  0.13161810  0.92452581  0.53389690    -1.23300
O2115       O  0.20426713  0.75543310  0.54465339    -0.85500
O2116       O  0.21478367  0.78697853  0.59357586    -0.82600
C2117       C  0.22833545  0.80459149  0.61206319     0.97900
O2118       O  0.24473989  0.82702865  0.60282000    -0.82600
O2119       O  0.28717718  0.82476971  0.58471448    -0.85200
C2120       C  0.29948688  0.81597937  0.57091563     1.02500
O2121       O  0.29141113  0.80467846  0.54593745    -0.78000
O2122       O  0.24244483  0.76025533  0.55135386    -0.78200
C2123       C  0.21823280  0.74602476  0.55164357     1.02400
O2124       O  0.20731979  0.79579393  0.50680855    -0.85500
O2125       O  0.20947958  0.82307627  0.55888032    -0.82600
C2126       C  0.22390863  0.84600727  0.55070439     0.98000
O2127       O  0.24740002  0.85391295  0.54585645    -0.82600
O2128       O  0.29053671  0.85154252  0.52893056    -0.85200
C2129       C  0.28879140  0.84322719  0.50214678     1.02400
O2130       O  0.27337272  0.82001217  0.49574246    -0.78000
O2131       O  0.22932861  0.77601713  0.99622073    -0.78200
C2132       C  0.21405195  0.78378465  0.98854848     1.02400
Cr2133     Cr  0.21158882  0.79166378  0.55056710     1.93700
Cr2134     Cr  0.26574124  0.83695230  0.56414180     1.93200
Cr2135     Cr  0.25786903  0.79115998  0.52430736     1.39100
O2136       O  0.24538466  0.80686321  0.54647781    -1.23300
O2137       O  0.19444526  0.78154506  0.84498492    -0.85500
O2138       O  0.23730383  0.78338188  0.82135733    -0.82600
C2139       C  0.25077736  0.77548501  0.80870448     0.97900
O2140       O  0.24123583  0.75801298  0.78906539    -0.82600
O2141       O  0.20260710  0.71222264  0.81522340    -0.85200
C2142       C  0.18062687  0.69562158  0.82480262     1.02500
O2143       O  0.16140294  0.69841428  0.81993238    -0.78000
O2144       O  0.17128051  0.74000160  0.85418652    -0.78200
C2145       C  0.18449026  0.76284398  0.86347996     1.02400
O2146       O  0.17950326  0.78662205  0.78395096    -0.85500
O2147       O  0.22296403  0.78989024  0.76045596    -0.82600
C2148       C  0.21666925  0.77473338  0.73804979     0.98000
O2149       O  0.20657045  0.75086382  0.74193140    -0.82600
O2150       O  0.17129899  0.70412389  0.76288030    -0.85200
C2151       C  0.15072415  0.70403325  0.75654586     1.02400
O2152       O  0.14422617  0.71790198  0.77130819    -0.78000
O2153       O  0.14811779  0.75652208  0.81012962    -0.78200
C2154       C  0.15706802  0.77672198  0.79446431     1.02400
Cr2155     Cr  0.20719443  0.78257405  0.80237536     1.93700
Cr2156     Cr  0.20449714  0.73271128  0.77908365     1.93200
Cr2157     Cr  0.15868829  0.72978375  0.81264055     1.39100
O2158       O  0.19032931  0.74857917  0.79817057    -1.23300
O2159       O  0.10593666  0.86974103  0.73582890    -0.85500
O2160       O  0.10713387  0.91139371  0.76098386    -0.82600
C2161       C  0.10122219  0.92538411  0.77596494     0.97900
O2162       O  0.08650327  0.91628236  0.79863695    -0.82600
O2163       O  0.03924296  0.88078597  0.77238522    -0.85200
C2164       C  0.02180145  0.85997606  0.76121465     1.02500
O2165       O  0.02343693  0.83974270  0.76216382    -0.78000
O2166       O  0.06443391  0.84921067  0.72700912    -0.78200
C2167       C  0.08728271  0.86170210  0.71756087     1.02400
O2168       O  0.11126932  0.85329995  0.79509824    -0.85500
O2169       O  0.11591733  0.89672888  0.82109182    -0.82600
C2170       C  0.10177219  0.88851482  0.84452381     0.98000
O2171       O  0.07767658  0.87738821  0.84232217    -0.82600
O2172       O  0.02964669  0.84585215  0.82047133    -0.85200
C2173       C  0.02721824  0.82381827  0.82333988     1.02400
O2174       O  0.04076917  0.81749382  0.80768195    -0.78000
O2175       O  0.08002014  0.82281901  0.76876764    -0.78200
C2176       C  0.10088732  0.83136496  0.78325295     1.02400
Cr2177     Cr  0.10743987  0.88156521  0.77877700     1.93700
Cr2178     Cr  0.05952506  0.87917101  0.80665988     1.93200
Cr2179     Cr  0.05379431  0.83452726  0.76771992     1.39100
O2180       O  0.07365463  0.86499791  0.78437951    -1.23300
O2181       O  0.88802407  0.44899580  0.67604642    -0.85500
O2182       O  0.86525501  0.41740186  0.62765990    -0.82600
C2183       C  0.84183693  0.40888244  0.63394003     0.97900
O2184       O  0.83300056  0.42406431  0.63412972    -0.82600
O2185       O  0.83228163  0.47055233  0.62865692    -0.85200
C2186       C  0.83665437  0.48268228  0.65321852     1.02500
O2187       O  0.85791643  0.49074988  0.66641635    -0.78000
O2188       O  0.90169661  0.49022170  0.68336017    -0.78200
C2189       C  0.89431412  0.46780266  0.69353260     1.02400
O2190       O  0.93026914  0.48263343  0.64015485    -0.85500
O2191       O  0.90363157  0.45543920  0.58900796    -0.82600
C2192       C  0.88532635  0.44517033  0.57036517     0.98000
O2193       O  0.86246196  0.43722216  0.57900569    -0.82600
O2194       O  0.86504819  0.48341795  0.57768306    -0.85200
C2195       C  0.87430969  0.50692160  0.58373176     1.02400
O2196       O  0.88159669  0.51539903  0.61021913    -0.78000
O2197       O  0.92556706  0.51461422  0.62595023    -0.78200
C2198       C  0.93994393  0.50532683  0.63067708     1.02400
Cr2199     Cr  0.89560936  0.45248940  0.63284828     1.93700
Cr2200     Cr  0.85026632  0.45489936  0.60688412     1.93200
Cr2201     Cr  0.89082784  0.50028952  0.64517016     1.39100
O2202       O  0.87879138  0.46944409  0.62851811    -1.23300
O2203       O  0.10461190  0.55659351  0.57480977    -0.85500
O2204       O  0.12546532  0.54881033  0.62598821    -0.82600
C2205       C  0.14841963  0.56323420  0.61767121     0.97900
O2206       O  0.15728128  0.58718032  0.61638236    -0.82600
O2207       O  0.15951378  0.63480512  0.61751905    -0.85200
C2208       C  0.15475201  0.64162589  0.59249240     1.02500
O2209       O  0.13305020  0.62836246  0.58037495    -0.78000
O2210       O  0.09057535  0.58333839  0.56421746    -0.78200
C2211       C  0.09868446  0.56833356  0.55571911     1.02400
O2212       O  0.06126151  0.54903737  0.60733283    -0.85500
O2213       O  0.08628899  0.55055618  0.66074753    -0.82600
C2214       C  0.10410767  0.55792695  0.67990410     0.98000
O2215       O  0.12731273  0.57369785  0.67265015    -0.82600
O2216       O  0.12702349  0.61832709  0.66920596    -0.85200
C2217       C  0.11738101  0.63200752  0.66226482     1.02400
O2218       O  0.10917347  0.63163290  0.63572566    -0.78000
O2219       O  0.06543206  0.58558143  0.62087896    -0.78200
C2220       C  0.05118741  0.56189214  0.61603484     1.02400
Cr2221     Cr  0.09557416  0.55386086  0.61751486     1.93700
Cr2222     Cr  0.14078193  0.60240459  0.64202064     1.93200
Cr2223     Cr  0.10032777  0.60572516  0.60181921     1.39100
O2224       O  0.11232805  0.58775588  0.62039056    -1.23300
O2225       O  0.79612822  0.57899357  0.90372072    -0.85500
O2226       O  0.75454449  0.53798502  0.92851518    -0.82600
C2227       C  0.74046196  0.51850329  0.94413529     0.97900
O2228       O  0.74952630  0.51323997  0.96695859    -0.82600
O2229       O  0.78514128  0.50147960  0.94084288    -0.85200
C2230       C  0.80588167  0.50553221  0.92855610     1.02500
O2231       O  0.82613515  0.52743868  0.93018089    -0.78000
O2232       O  0.81748814  0.55898990  0.89470810    -0.78200
C2233       C  0.80487530  0.56911366  0.88523256     1.02400
O2234       O  0.81166701  0.60075039  0.96320846    -0.85500
O2235       O  0.76809218  0.56149324  0.98850796    -0.82600
C2236       C  0.77746561  0.55807217  0.51217333     0.98000
O2237       O  0.78891119  0.54539561  0.51039835    -0.82600
O2238       O  0.81976905  0.52717500  0.98890435    -0.85200
C2239       C  0.84130776  0.54727906  0.99246422     1.02400
O2240       O  0.84777466  0.56685039  0.97623491    -0.78000
O2241       O  0.84285913  0.60079733  0.93740558    -0.78200
C2242       C  0.83391323  0.61276921  0.95199870     1.02400
Cr2243     Cr  0.78385029  0.56847391  0.94647230     1.93700
Cr2244     Cr  0.78657089  0.52355861  0.97496747     1.93200
Cr2245     Cr  0.83137115  0.56285464  0.93597349     1.39100
O2246       O  0.80066947  0.55173139  0.95234850    -1.23300
O2247       O  0.88528896  0.75823220  0.51216113    -0.85500
O2248       O  0.88176931  0.79784323  0.98913583    -0.82600
C2249       C  0.88796009  0.81847473  0.97549786     0.97900
O2250       O  0.90362584  0.82550260  0.95354868    -0.82600
O2251       O  0.95195846  0.83522199  0.97591648    -0.85200
C2252       C  0.96870030  0.83033246  0.98617771     1.02500
O2253       O  0.96627179  0.80835470  0.98222824    -0.78000
O2254       O  0.92678312  0.77968556  0.52142335    -0.78200
C2255       C  0.90380021  0.76911953  0.53065044     1.02400
O2256       O  0.87718869  0.73616928  0.95147396    -0.85500
O2257       O  0.87169399  0.77555131  0.92884878    -0.82600
C2258       C  0.88505096  0.78286224  0.90484650     0.98000
O2259       O  0.90918624  0.79610177  0.90590444    -0.82600
O2260       O  0.95718370  0.80942898  0.92413740    -0.85200
C2261       C  0.95716089  0.78873595  0.91874655     1.02400
O2262       O  0.94553003  0.76956642  0.93608205    -0.78000
O2263       O  0.90824648  0.73595416  0.97671770    -0.78200
C2264       C  0.88749095  0.72408661  0.96204676     1.02400
Cr2265     Cr  0.88151210  0.76811576  0.96972830     1.93700
Cr2266     Cr  0.92930416  0.81438272  0.94181031     1.93200
Cr2267     Cr  0.93494612  0.77365070  0.97748085     1.39100
O2268       O  0.91517239  0.78538900  0.96307931    -1.23300
O2269       O  0.90500048  0.80238425  0.73850722    -0.85500
O2270       O  0.86316980  0.76092519  0.76243767    -0.82600
C2271       C  0.85322011  0.77000402  0.78044991     0.97900
O2272       O  0.83986457  0.77913608  0.77040172    -0.82600
O2273       O  0.83003341  0.80946064  0.73430147    -0.85200
C2274       C  0.84946245  0.83144755  0.73869487     1.02500
O2275       O  0.87115888  0.83706909  0.72776215    -0.78000
O2276       O  0.90958483  0.82882634  0.70217549    -0.78200
C2277       C  0.91876888  0.82288054  0.72429230     1.02400
O2278       O  0.89234573  0.77955614  0.67799058    -0.85500
O2279       O  0.84888955  0.73895700  0.70243843    -0.82600
C2280       C  0.82624603  0.72655261  0.71256414     0.98000
O2281       O  0.81683654  0.73796382  0.72717210    -0.82600
O2282       O  0.81200970  0.77128551  0.68764433    -0.85200
C2283       C  0.81799771  0.79124362  0.67239595     1.02400
O2284       O  0.83899065  0.81179972  0.67703956    -0.78000
O2285       O  0.87361529  0.79882529  0.65638752    -0.78200
C2286       C  0.88514984  0.78622510  0.65438761     1.02400
Cr2287     Cr  0.87602884  0.77175295  0.71979670     1.93700
Cr2288     Cr  0.82708825  0.77526029  0.72861544     1.93200
Cr2289     Cr  0.87243310  0.81693637  0.69264657     1.39100
O2290       O  0.85854071  0.78785228  0.71369464    -1.23300
O2291       O  0.77665356  0.54224133  0.67676967    -0.85500
O2292       O  0.77425876  0.58298540  0.65412760    -0.82600
C2293       C  0.75579015  0.57253361  0.63557107     0.97900
O2294       O  0.73284991  0.56180268  0.64494982    -0.82600
O2295       O  0.69240451  0.52962465  0.68136863    -0.85200
C2296       C  0.69064931  0.50773092  0.67980299     1.02500
O2297       O  0.70836118  0.50426013  0.68976572    -0.78000
O2298       O  0.75635040  0.51590967  0.71398326    -0.78200
C2299       C  0.77135421  0.52233599  0.69145892     1.02400
O2300       O  0.78589898  0.56420251  0.73731542    -0.85500
O2301       O  0.77997308  0.60319036  0.71438169    -0.82600
C2302       C  0.76995437  0.61522629  0.70296202     0.98000
O2303       O  0.74916526  0.60318243  0.68821060    -0.82600
O2304       O  0.71056824  0.56843076  0.72769582    -0.85200
C2305       C  0.69783187  0.54853061  0.74371166     1.02400
O2306       O  0.69993421  0.52886416  0.73965061    -0.78000
O2307       O  0.74823793  0.54508095  0.75989469    -0.78200
C2308       C  0.77237554  0.55770060  0.76122664     1.02400
Cr2309     Cr  0.77658304  0.57178815  0.69613929     1.93700
Cr2310     Cr  0.72285297  0.56511718  0.68676415     1.93200
Cr2311     Cr  0.72939576  0.52568470  0.72398315     1.39100
O2312       O  0.74295229  0.55423640  0.70218562    -1.23300
O2313       O  0.54224425  0.42305553  0.88613458    -0.85500
O2314       O  0.55435004  0.45546657  0.93459794    -0.82600
C2315       C  0.56834843  0.47403530  0.95183374     0.97900
O2316       O  0.58480366  0.49584806  0.94105557    -0.82600
O2317       O  0.62539017  0.49164437  0.92144414    -0.85200
C2318       C  0.63702893  0.48229081  0.90742791     1.02500
O2319       O  0.62872348  0.47128422  0.88234371    -0.78000
O2320       O  0.58037624  0.42713346  0.88956705    -0.78200
C2321       C  0.55620624  0.41323618  0.89097266     1.02400
O2322       O  0.54361335  0.46203706  0.84765550    -0.85500
O2323       O  0.54845352  0.49099152  0.89932831    -0.82600
C2324       C  0.56282460  0.51355887  0.88995192     0.98000
O2325       O  0.58590581  0.52091259  0.88335035    -0.82600
O2326       O  0.62833181  0.51764268  0.86528291    -0.85200
C2327       C  0.62546017  0.50899024  0.83852520     1.02400
O2328       O  0.60910722  0.48593177  0.83278532    -0.78000
O2329       O  0.56359958  0.44115293  0.83552206    -0.78200
C2330       C  0.54864707  0.44946600  0.82859524     1.02400
Cr2331     Cr  0.54970005  0.45910221  0.89136253     1.93700
Cr2332     Cr  0.60437726  0.50420064  0.90142962     1.93200
Cr2333     Cr  0.59464872  0.45761043  0.86212628     1.39100
O2334       O  0.58317788  0.47380937  0.88515895    -1.23300
O2335       O  0.42801660  0.55904902  0.84461838    -0.85500
O2336       O  0.47212926  0.56297968  0.82306512    -0.82600
C2337       C  0.47960497  0.58114030  0.80399340     0.97900
O2338       O  0.49126245  0.60420239  0.81275525    -0.82600
O2339       O  0.49978421  0.64543066  0.84774365    -0.85200
C2340       C  0.47975991  0.64723849  0.84510888     1.02500
O2341       O  0.45819509  0.62926139  0.85406002    -0.78000
O2342       O  0.42106092  0.58133971  0.87854364    -0.78200
C2343       C  0.41302940  0.56503586  0.85729603     1.02400
O2344       O  0.44058548  0.55222506  0.90615770    -0.85500
O2345       O  0.48655704  0.55972124  0.88492298    -0.82600
C2346       C  0.50883591  0.56986306  0.87390214     0.98000
O2347       O  0.51656316  0.58901843  0.85644180    -0.82600
O2348       O  0.51941279  0.62745011  0.89481337    -0.85200
C2349       C  0.51174351  0.63987757  0.91053978     1.02400
O2350       O  0.49010129  0.63799036  0.90568658    -0.78000
O2351       O  0.45697049  0.59050978  0.92641307    -0.78200
C2352       C  0.44660750  0.56655604  0.92928568     1.02400
Cr2353     Cr  0.45802802  0.56107648  0.86502415     1.93700
Cr2354     Cr  0.50443162  0.61489556  0.85405865     1.93200
Cr2355     Cr  0.45755670  0.60857967  0.88940594     1.39100
O2356       O  0.47322211  0.59480761  0.86938123    -1.23300
O2357       O  0.53139204  0.79327371  0.54371057    -0.85500
O2358       O  0.55200163  0.78475900  0.59443838    -0.82600
C2359       C  0.55732684  0.77245355  0.61336263     0.97900
O2360       O  0.56328382  0.75597574  0.60461813    -0.82600
O2361       O  0.51838607  0.71432666  0.58615466    -0.85200
C2362       C  0.49852711  0.70058589  0.57085852     1.02500
O2363       O  0.49699858  0.70696838  0.54410148    -0.78000
O2364       O  0.49844841  0.75419940  0.54741417    -0.78200
C2365       C  0.50766891  0.77822448  0.54873194     1.02400
O2366       O  0.57146912  0.79271968  0.50809194    -0.85500
O2367       O  0.59482796  0.79035728  0.56110262    -0.82600
C2368       C  0.60345026  0.77563896  0.55456497     0.98000
O2369       O  0.58809199  0.75214442  0.54987854    -0.82600
O2370       O  0.54341036  0.70873933  0.53298797    -0.85200
C2371       C  0.54011732  0.71123090  0.50517771     1.02400
O2372       O  0.53387695  0.72731319  0.49650571    -0.78000
O2373       O  0.53502177  0.77255728  0.99638588    -0.78200
C2374       C  0.55848789  0.78760991  0.98999318     1.02400
Cr2375     Cr  0.56123076  0.78783246  0.55143945     1.93700
Cr2376     Cr  0.55264512  0.73433982  0.56688899     1.93200
Cr2377     Cr  0.51693348  0.74080846  0.52262450     1.39100
O2378       O  0.54360451  0.75419247  0.54716116    -1.23300
O2379       O  0.78495542  0.91588811  0.53748755    -0.85500
O2380       O  0.76570122  0.88685144  0.98892666    -0.82600
C2381       C  0.75978507  0.86751947  0.97243170     0.97900
O2382       O  0.75588076  0.84633497  0.98349045    -0.82600
O2383       O  0.79520658  0.84472428  0.49792949    -0.85200
C2384       C  0.81655072  0.85327213  0.51111140     1.02500
O2385       O  0.82057781  0.86513718  0.53579232    -0.78000
O2386       O  0.81784197  0.91031236  0.53036543    -0.78200
C2387       C  0.80833744  0.92491462  0.53055977     1.02400
O2388       O  0.74826651  0.87737443  0.57759652    -0.85500
O2389       O  0.72135126  0.84876664  0.52752981    -0.82600
C2390       C  0.71321518  0.82657528  0.53802909     0.98000
O2391       O  0.72835693  0.81800531  0.54124524    -0.82600
O2392       O  0.77400032  0.81971095  0.55464276    -0.85200
C2393       C  0.78106017  0.82828859  0.58115679     1.02400
O2394       O  0.78869243  0.85147044  0.58743987    -0.78000
O2395       O  0.78965778  0.89698351  0.58628617    -0.78200
C2396       C  0.76690615  0.88827547  0.59574244     1.02400
Cr2397     Cr  0.75537259  0.88007566  0.53332877     1.93700
Cr2398     Cr  0.76245139  0.83356866  0.52043135     1.93200
Cr2399     Cr  0.80213666  0.87985073  0.55806427     1.39100
O2400       O  0.77339936  0.86429547  0.53707824    -1.23300
O2401       O  0.87328346  0.08664716  0.71642484    -0.85500
O2402       O  0.88447774  0.11982718  0.76488558    -0.82600
C2403       C  0.89818264  0.13927127  0.78113548     0.97900
O2404       O  0.91458399  0.16075179  0.76972859    -0.82600
O2405       O  0.95662114  0.15813381  0.75168738    -0.85200
C2406       C  0.96873910  0.14888743  0.73841886     1.02500
O2407       O  0.96026642  0.13657070  0.71403109    -0.78000
O2408       O  0.91180058  0.09191497  0.72137233    -0.78200
C2409       C  0.88765559  0.07759221  0.72286212     1.02400
O2410       O  0.87495146  0.12585161  0.67767950    -0.85500
O2411       O  0.87797875  0.15423612  0.72884125    -0.82600
C2412       C  0.89194370  0.17684570  0.71940918     0.98000
O2413       O  0.91493227  0.18441776  0.71200509    -0.82600
O2414       O  0.95837913  0.18254913  0.69500062    -0.85200
C2415       C  0.95625032  0.17350627  0.66862099     1.02400
O2416       O  0.94080750  0.15008916  0.66326567    -0.78000
O2417       O  0.89528165  0.10519532  0.66588316    -0.78200
C2418       C  0.88099585  0.11421420  0.65850518     1.02400
Cr2419     Cr  0.88024007  0.12278069  0.72132674     1.93700
Cr2420     Cr  0.93442917  0.16902322  0.73080310     1.93200
Cr2421     Cr  0.92612207  0.12205785  0.69317230     1.39100
O2422       O  0.91392803  0.13810376  0.71539275    -1.23300
O2423       O  0.75391388  0.21918211  0.67898146    -0.85500
O2424       O  0.79808577  0.22259259  0.65664397    -0.82600
C2425       C  0.80732959  0.24053650  0.63714776     0.97900
O2426       O  0.81847885  0.26375182  0.64517064    -0.82600
O2427       O  0.82525068  0.30556796  0.67638133    -0.85200
C2428       C  0.80482242  0.30649643  0.67226819     1.02500
O2429       O  0.78366285  0.28929482  0.68312123    -0.78000
O2430       O  0.74800419  0.24305726  0.71161308    -0.78200
C2431       C  0.73937015  0.22593853  0.69141243     1.02400
O2432       O  0.76921886  0.21578449  0.74078943    -0.85500
O2433       O  0.81419262  0.22155992  0.71831646    -0.82600
C2434       C  0.83652260  0.23207590  0.70727763     0.98000
O2435       O  0.84402357  0.25125991  0.69004302    -0.82600
O2436       O  0.84567016  0.29002717  0.72611420    -0.85200
C2437       C  0.83831656  0.30352329  0.73996606     1.02400
O2438       O  0.81695791  0.30178289  0.73384586    -0.78000
O2439       O  0.78508468  0.25509007  0.75789548    -0.78200
C2440       C  0.77557620  0.23145263  0.76270774     1.02400
Cr2441     Cr  0.78497764  0.22240330  0.69883760     1.93700
Cr2442     Cr  0.83102845  0.27612089  0.68576531     1.93200
Cr2443     Cr  0.78442975  0.27096954  0.71994110     1.39100
O2444       O  0.79995844  0.25632533  0.70122171    -1.23300
O2445       O  0.11204237  0.21371453  0.51355434    -0.85500
O2446       O  0.10893700  0.25185928  0.99150876    -0.82600
C2447       C  0.09069746  0.24100227  0.97269869     0.97900
O2448       O  0.06770769  0.23123749  0.98150138    -0.82600
O2449       O  0.02704672  0.20038802  0.51299633    -0.85200
C2450       C  0.02530426  0.17858091  0.50980607     1.02500
O2451       O  0.04232101  0.17441327  0.52071240    -0.78000
O2452       O  0.08922556  0.18508118  0.54779075    -0.78200
C2453       C  0.10556387  0.19283043  0.52659269     1.02400
O2454       O  0.11776386  0.23383796  0.57501686    -0.85500
O2455       O  0.11261884  0.27302992  0.55185566    -0.82600
C2456       C  0.10284659  0.28527494  0.54039769     0.98000
O2457       O  0.08307211  0.27356767  0.52398213    -0.82600
O2458       O  0.04333897  0.23737533  0.56139119    -0.85200
C2459       C  0.02974618  0.21670748  0.57580129     1.02400
O2460       O  0.03188507  0.19716084  0.57087796    -0.78000
O2461       O  0.07890893  0.21199378  0.59423985    -0.78200
C2462       C  0.10283341  0.22563490  0.59780891     1.02400
Cr2463     Cr  0.11044976  0.24226676  0.53307388     1.93700
Cr2464     Cr  0.05712466  0.23555652  0.52088855     1.93200
Cr2465     Cr  0.06192511  0.19447230  0.55667372     1.39100
O2466       O  0.07657886  0.22411006  0.53674969    -1.23300
O2467       O  0.25227630  0.47060390  0.55007425    -0.85500
O2468       O  0.21875619  0.44457960  0.59691232    -0.82600
C2469       C  0.19923586  0.43807878  0.61347086     0.97900
O2470       O  0.17783530  0.43357820  0.60257122    -0.82600
O2471       O  0.17971052  0.47829182  0.58720943    -0.85200
C2472       C  0.18855773  0.50015229  0.57535154     1.02500
O2473       O  0.20039591  0.50501769  0.55050680    -0.78000
O2474       O  0.24562366  0.50282154  0.55734422    -0.78200
C2475       C  0.26054100  0.49371703  0.55762645     1.02400
O2476       O  0.21532722  0.43457604  0.50819197    -0.85500
O2477       O  0.18594873  0.40556188  0.55756881    -0.82600
C2478       C  0.16282583  0.39659996  0.55010015     0.98000
O2479       O  0.15455770  0.41172817  0.54454739    -0.82600
O2480       O  0.15575456  0.45705659  0.52952682    -0.85200
C2481       C  0.16500010  0.46460269  0.50326328     1.02400
O2482       O  0.18867771  0.47387176  0.49808608    -0.78000
O2483       O  0.23301115  0.47589048  0.99961726    -0.78200
C2484       C  0.22535292  0.45336777  0.99008172     1.02400
Cr2485     Cr  0.21683673  0.44017939  0.55270352     1.93700
Cr2486     Cr  0.16946348  0.44608745  0.56459771     1.93200
Cr2487     Cr  0.21616261  0.48722805  0.52854155     1.39100
O2488       O  0.20062151  0.45786512  0.54892578    -1.23300
O2489       O  0.86744236  0.45711589  0.87922789    -0.85500
O2490       O  0.89274426  0.44984647  0.92572081    -0.82600
C2491       C  0.89907418  0.43759670  0.94344640     0.97900
O2492       O  0.90440439  0.42084278  0.93372704    -0.82600
O2493       O  0.85939327  0.37680112  0.91848287    -0.85200
C2494       C  0.83753915  0.36363538  0.90650560     1.02500
O2495       O  0.83280883  0.37076777  0.88180714    -0.78000
O2496       O  0.83542987  0.41836478  0.88790668    -0.78200
C2497       C  0.84433742  0.44233059  0.88724939     1.02400
O2498       O  0.90391812  0.45569163  0.83824374    -0.85500
O2499       O  0.93277263  0.45603417  0.88769238    -0.82600
C2500       C  0.94181945  0.44180184  0.88071837     0.98000
O2501       O  0.92663169  0.41824719  0.87580046    -0.82600
O2502       O  0.88095417  0.37389386  0.86103033    -0.85200
C2503       C  0.87275527  0.37495136  0.83495088     1.02400
O2504       O  0.86393992  0.38960255  0.82954117    -0.78000
O2505       O  0.86228788  0.43342648  0.83067788    -0.78200
C2506       C  0.88488213  0.44772442  0.82079213     1.02400
Cr2507     Cr  0.89796087  0.45207225  0.88232723     1.93700
Cr2508     Cr  0.89197227  0.39901757  0.89588009     1.93200
Cr2509     Cr  0.85084529  0.40410798  0.85940259     1.39100
O2510       O  0.88027962  0.41812379  0.87940285    -1.23300
O2511       O  0.12419379  0.57753682  0.84777198    -0.85500
O2512       O  0.08470174  0.53403780  0.82338570    -0.82600
C2513       C  0.09452109  0.52615192  0.80360009     0.97900
O2514       O  0.10589080  0.51422302  0.81127173    -0.82600
O2515       O  0.13929272  0.50520435  0.84305445    -0.85200
C2516       C  0.16091235  0.52539896  0.83909791     1.02500
O2517       O  0.16496624  0.54654250  0.84976793    -0.78000
O2518       O  0.15536722  0.58261195  0.87768681    -0.78200
C2519       C  0.14566273  0.59177070  0.85986576     1.02400
O2520       O  0.10504178  0.56081535  0.90807317    -0.85500
O2521       O  0.06603930  0.51603610  0.88453261    -0.82600
C2522       C  0.05386967  0.49451568  0.87174989     0.98000
O2523       O  0.06592356  0.48738105  0.85451552    -0.82600
O2524       O  0.10240486  0.48451815  0.89170929    -0.85200
C2525       C  0.12293669  0.49178257  0.90632921     1.02400
O2526       O  0.14287838  0.51313890  0.90072376    -0.78000
O2527       O  0.12991531  0.54653790  0.92496447    -0.78200
C2528       C  0.11615170  0.55650796  0.92971315     1.02400
Cr2529     Cr  0.09647540  0.54580888  0.86609617     1.93700
Cr2530     Cr  0.10414813  0.50015395  0.85158673     1.93200
Cr2531     Cr  0.14583185  0.54609553  0.88653883     1.39100
O2532       O  0.11554404  0.53094185  0.86796419    -1.23300
O2533       O  0.76525303  0.89019091  0.74067685    -0.85500
O2534       O  0.78563852  0.87951052  0.78993894    -0.82600
C2535       C  0.80927582  0.89308433  0.78356896     0.97900
O2536       O  0.81986915  0.91726682  0.78412129    -0.82600
O2537       O  0.82529659  0.96626447  0.78787045    -0.85200
C2538       C  0.82234244  0.97336669  0.76204880     1.02500
O2539       O  0.80120603  0.96053951  0.74845447    -0.78000
O2540       O  0.75412912  0.91950449  0.73255946    -0.78200
C2541       C  0.75963476  0.90295519  0.72282273     1.02400
O2542       O  0.72447505  0.88666834  0.77584482    -0.85500
O2543       O  0.74863414  0.88327767  0.82743940    -0.82600
C2544       C  0.76623920  0.88886342  0.84646146     0.98000
O2545       O  0.78965232  0.90307478  0.83919585    -0.82600
O2546       O  0.79141570  0.94923763  0.83854099    -0.85200
C2547       C  0.78679828  0.96656728  0.83034976     1.02400
O2548       O  0.78049855  0.96780529  0.80337463    -0.78000
O2549       O  0.73279605  0.92492833  0.78940371    -0.78200
C2550       C  0.71665589  0.90175905  0.78361659     1.02400
Cr2551     Cr  0.75731793  0.88733561  0.78388861     1.93700
Cr2552     Cr  0.80454337  0.93303327  0.81051902     1.93200
Cr2553     Cr  0.76771462  0.94156838  0.76995462     1.39100
O2554       O  0.77657387  0.92088823  0.78804735    -1.23300
O2555       O  0.57663666  0.80962354  0.84562272    -0.85500
O2556       O  0.53608627  0.76612091  0.82337627    -0.82600
C2557       C  0.51492664  0.75143439  0.81093435     0.97900
O2558       O  0.50632845  0.75998797  0.79076039    -0.82600
O2559       O  0.49568394  0.79545687  0.81945650    -0.85200
C2560       C  0.49940592  0.81654461  0.83006678     1.02500
O2561       O  0.52089904  0.83697392  0.82658341    -0.78000
O2562       O  0.55535971  0.82923843  0.85801140    -0.78200
C2563       C  0.56710495  0.81763082  0.86558354     1.02400
O2564       O  0.59359454  0.82637169  0.78393804    -0.85500
O2565       O  0.55455912  0.78133427  0.76163593    -0.82600
C2566       C  0.54554101  0.78793587  0.73973005     0.98000
O2567       O  0.53163822  0.79771140  0.74439646    -0.82600
O2568       O  0.51674196  0.82919574  0.76899030    -0.85200
C2569       C  0.53657382  0.85038148  0.76255617     1.02400
O2570       O  0.55723297  0.85787419  0.77698281    -0.78000
O2571       O  0.59420773  0.85574210  0.81326833    -0.78200
C2572       C  0.60574519  0.84839345  0.79551927     1.02400
Cr2573     Cr  0.56379785  0.79701015  0.80347060     1.93700
Cr2574     Cr  0.51486627  0.79654776  0.78257269     1.93200
Cr2575     Cr  0.55616611  0.84273686  0.81741914     1.39100
O2576       O  0.54490210  0.81192788  0.80142247    -1.23300
O2577       O  0.54855077  0.10792865  0.68255282    -0.85500
O2578       O  0.53729769  0.12801883  0.63340248    -0.82600
C2579       C  0.55135895  0.15143924  0.64029943     0.97900
O2580       O  0.57556135  0.16158802  0.63877634    -0.82600
O2581       O  0.62445159  0.16581778  0.63260078    -0.85200
C2582       C  0.63279314  0.16285566  0.65754856     1.02500
O2583       O  0.61993287  0.14235247  0.67232938    -0.78000
O2584       O  0.57805405  0.09715113  0.69103397    -0.78200
C2585       C  0.56206703  0.10354157  0.70071256     1.02400
O2586       O  0.54284204  0.06585353  0.64855959    -0.85500
O2587       O  0.53961784  0.08995327  0.59614528    -0.82600
C2588       C  0.54527461  0.10743423  0.57679270     0.98000
O2589       O  0.55994768  0.13084336  0.58368630    -0.82600
O2590       O  0.60598892  0.13185175  0.58296384    -0.85200
C2591       C  0.62274510  0.12608928  0.59042069     1.02400
O2592       O  0.62392804  0.11937791  0.61729030    -0.78000
O2593       O  0.58059817  0.07321215  0.63401793    -0.78200
C2594       C  0.55732403  0.05752337  0.64003246     1.02400
Cr2595     Cr  0.54461152  0.09921278  0.63965813     1.93700
Cr2596     Cr  0.59048999  0.14554952  0.61155019     1.93200
Cr2597     Cr  0.59887704  0.10853075  0.65221580     1.39100
O2598       O  0.57828965  0.11780566  0.63453775    -1.23300
O2599       O  0.46204886  0.91561311  0.57163069    -0.85500
O2600       O  0.41870807  0.87564617  0.59542240    -0.82600
C2601       C  0.40411196  0.85520911  0.60943747     0.97900
O2602       O  0.41271603  0.84828019  0.63135640    -0.82600
O2603       O  0.44848012  0.83639378  0.60546554    -0.85200
C2604       C  0.46934261  0.84035020  0.59359611     1.02500
O2605       O  0.48982605  0.86180052  0.59664176    -0.78000
O2606       O  0.48160835  0.89394940  0.56142191    -0.78200
C2607       C  0.46926966  0.90462386  0.55271264     1.02400
O2608       O  0.47839643  0.93586382  0.63224454    -0.85500
O2609       O  0.43308948  0.89743826  0.65560349    -0.82600
C2610       C  0.44017270  0.89058320  0.67901304     0.98000
O2611       O  0.45069608  0.87706477  0.67688562    -0.82600
O2612       O  0.48232329  0.86069546  0.65508474    -0.85200
C2613       C  0.50351843  0.88090318  0.66010156     1.02400
O2614       O  0.51124162  0.90033740  0.64317277    -0.78000
O2615       O  0.50808579  0.93526233  0.60426905    -0.78200
C2616       C  0.50080305  0.94733571  0.62128601     1.02400
Cr2617     Cr  0.44927711  0.90478840  0.61408704     1.93700
Cr2618     Cr  0.44953409  0.85775052  0.64039933     1.93200
Cr2619     Cr  0.49546170  0.89716607  0.60265697     1.39100
O2620       O  0.46467100  0.88652980  0.61887650    -1.23300
O2621       O  0.87774408  0.11530603  0.51489854    -0.85500
O2622       O  0.91366213  0.12895749  0.96698353    -0.82600
C2623       C  0.92276581  0.11452382  0.97314809     0.97900
O2624       O  0.90852163  0.09042590  0.97188247    -0.82600
O2625       O  0.86432673  0.04212508  0.96413620    -0.85200
C2626       C  0.85264282  0.03420198  0.98903141     1.02500
O2627       O  0.84401234  0.04685067  0.00233616    -0.78000
O2628       O  0.83751060  0.08434123  0.52117943    -0.78200
C2629       C  0.85881712  0.10150628  0.53192435     1.02400
O2630       O  0.84520972  0.12348993  0.97642579    -0.85500
O2631       O  0.87500639  0.12689085  0.92664079    -0.82600
C2632       C  0.88732321  0.12110331  0.90815709     0.98000
O2633       O  0.89654323  0.10724342  0.91637075    -0.82600
O2634       O  0.85142491  0.06193992  0.91310939    -0.85200
C2635       C  0.82850630  0.04524061  0.91908995     1.02400
O2636       O  0.81945771  0.04312989  0.94554134    -0.78000
O2637       O  0.81553224  0.08574199  0.96109886    -0.78200
C2638       C  0.82258162  0.10878516  0.96734114     1.02400
Cr2639     Cr  0.87738223  0.12202441  0.97056667     1.93700
Cr2640     Cr  0.87902982  0.07635453  0.94334112     1.93200
Cr2641     Cr  0.83188921  0.06759258  0.98079082     1.39100
O2642       O  0.86263939  0.08842195  0.96520911    -1.23300
O2643       O  0.77461143  0.21906209  0.90725413    -0.85500
O2644       O  0.78515197  0.25019202  0.95663319    -0.82600
C2645       C  0.77163568  0.26012930  0.94979425     0.97900
O2646       O  0.74735418  0.24640150  0.95036576    -0.82600
O2647       O  0.69795420  0.20208135  0.95526734    -0.85200
C2648       C  0.68946594  0.19081313  0.93032355     1.02500
O2649       O  0.70206920  0.18281806  0.91554975    -0.78000
O2650       O  0.74427089  0.17918991  0.89779584    -0.78200
C2651       C  0.76118407  0.20144458  0.88866994     1.02400
O2652       O  0.77856096  0.18212705  0.94224282    -0.85500
O2653       O  0.78100006  0.20906026  0.99403801    -0.82600
C2654       C  0.78039205  0.22020225  0.51291048     0.98000
O2655       O  0.76586600  0.22929321  0.50710176    -0.82600
O2656       O  0.71914855  0.18545100  0.50818000    -0.85200
C2657       C  0.69849252  0.16336688  0.99716707     1.02400
O2658       O  0.69718589  0.15547675  0.97028311    -0.78000
O2659       O  0.73997293  0.15179272  0.95447083    -0.78200
C2660       C  0.76364185  0.15965741  0.95143088     1.02400
Cr2661     Cr  0.77723107  0.21388340  0.95036682     1.93700
Cr2662     Cr  0.73144456  0.21509878  0.97692777     1.93200
Cr2663     Cr  0.72269507  0.16960941  0.93592585     1.39100
O2664       O  0.74348359  0.19931426  0.95417852    -1.23300
C2665       C  0.81130011  0.14206422  0.98094560    -0.21500
C2666       C  0.80476969  0.11921912  0.96537361    -0.09500
C2667       C  0.78218482  0.10781410  0.94777077     0.29300
C2668       C  0.76745853  0.12000159  0.94464371    -0.21500
C2669       C  0.77512278  0.14361770  0.95898226    -0.09500
C2670       C  0.79679921  0.15412330  0.97776858     0.29300
F2671       F  0.80446114  0.17663115  0.99247223    -0.20100
H2672       H  0.82816485  0.15109434  0.99521356     0.17700
H2673       H  0.75095300  0.11174680  0.92980367     0.17700
F2674       F  0.77511474  0.08575490  0.93237024    -0.20000
C2675       C  0.68793207  0.15025597  0.55421565    -0.21500
C2676       C  0.68170787  0.14769189  0.52336262    -0.09500
C2677       C  0.65561419  0.13435579  0.51498529     0.29300
C2678       C  0.63630248  0.12577739  0.53708307    -0.21500
C2679       C  0.64258389  0.12971466  0.56789084    -0.09500
C2680       C  0.66859673  0.14107917  0.57632733     0.29300
F2681       F  0.67550576  0.14558699  0.60582126    -0.20100
H2682       H  0.70787766  0.16063316  0.56121773     0.17700
H2683       H  0.61642316  0.11718137  0.53005912     0.17700
F2684       F  0.64877439  0.13186386  0.48547603    -0.20000
C2685       C  0.55308120  0.01815193  0.61410956    -0.21500
C2686       C  0.54615005  0.02920806  0.63764730    -0.09500
C2687       C  0.52615637  0.01282981  0.65737396     0.29300
C2688       C  0.51229145  0.98631646  0.65239946    -0.21500
C2689       C  0.51799863  0.97525280  0.62778652    -0.09500
C2690       C  0.53915401  0.99141178  0.60913426     0.29300
F2691       F  0.54552897  0.98166002  0.58514128    -0.20100
H2692       H  0.56839101  0.03032185  0.59862898     0.17700
H2693       H  0.49660397  0.97443670  0.66761093     0.17700
F2694       F  0.51965804  0.02253509  0.68133599    -0.20000
C2695       C  0.54659431  0.86850113  0.71047379    -0.21500
C2696       C  0.53435765  0.86590148  0.73841004    -0.09500
C2697       C  0.51512832  0.87255382  0.74073327     0.29300
C2698       C  0.50713951  0.88010249  0.71517206    -0.21500
C2699       C  0.51799009  0.88100815  0.68683624    -0.09500
C2700       C  0.53826748  0.87576151  0.68463450     0.29300
F2701       F  0.54813381  0.87510680  0.65725558    -0.20100
H2702       H  0.56093646  0.86271839  0.70816505     0.17700
H2703       H  0.49092815  0.88318235  0.71708014     0.17700
F2704       F  0.50255216  0.86960990  0.76727250    -0.20000
C2705       C  0.80857634  0.01276025  0.84306096    -0.21500
C2706       C  0.79197629  0.98722635  0.85180860    -0.09500
C2707       C  0.78452423  0.98164244  0.88219885     0.29300
C2708       C  0.79474525  0.00121984  0.90378439    -0.21500
C2709       C  0.81314778  0.02644374  0.89547283    -0.09500
C2710       C  0.81936185  0.03223022  0.86469516     0.29300
F2711       F  0.83694371  0.05638373  0.85568073    -0.20100
H2712       H  0.81480694  0.01732122  0.81976878     0.17700
H2713       H  0.78974466  0.99624701  0.92730263     0.17700
F2714       F  0.76842047  0.95706759  0.89118455    -0.20000
C2715       C  0.64917654  0.88794463  0.80531703    -0.21500
C2716       C  0.63390712  0.86470006  0.78961273    -0.09500
C2717       C  0.64623129  0.85600975  0.76970988     0.29300
C2718       C  0.67291067  0.86908074  0.76724468    -0.21500
C2719       C  0.68836008  0.89127916  0.78429061    -0.09500
C2720       C  0.67622244  0.90127337  0.80256769     0.29300
F2721       F  0.69038328  0.92302777  0.81884681    -0.20100
H2722       H  0.64027491  0.89531614  0.82055672     0.17700
H2723       H  0.68157804  0.86124183  0.75230522     0.17700
F2724       F  0.63267422  0.83423550  0.75324402    -0.20000
C2725       C  0.98255999  0.44343513  0.86133072    -0.21500
C2726       C  0.97043595  0.45335297  0.87976311    -0.09500
C2727       C  0.98610779  0.47532862  0.89724903     0.29300
C2728       C  0.01292272  0.48768054  0.89524300    -0.21500
C2729       C  0.02523636  0.47872265  0.87577145    -0.09500
C2730       C  0.00966495  0.45599713  0.85919169     0.29300
F2731       F  0.02048495  0.44627892  0.84028178    -0.20100
H2732       H  0.97106326  0.42643106  0.84784472     0.17700
H2733       H  0.02409288  0.50479534  0.90868775     0.17700
F2734       F  0.97552605  0.48504044  0.91654551    -0.20000
C2735       C  0.82357230  0.33019568  0.94719877    -0.21500
C2736       C  0.81787983  0.33868809  0.92033547    -0.09500
C2737       C  0.79446972  0.32189758  0.90555251     0.29300
C2738       C  0.77830087  0.29680812  0.91641908    -0.21500
C2739       C  0.78517851  0.28790004  0.94198010    -0.09500
C2740       C  0.80756240  0.30516001  0.95781411     0.29300
F2741       F  0.81448770  0.29750244  0.98314166    -0.20100
H2742       H  0.84110934  0.34256199  0.95939425     0.17700
H2743       H  0.76124907  0.28385715  0.90377399     0.17700
F2744       F  0.78776917  0.32910156  0.87968802    -0.20000
C2745       C  0.14115462  0.46560200  0.92428482    -0.21500
C2746       C  0.12502239  0.47576059  0.92973682    -0.09500
C2747       C  0.11752812  0.47699680  0.95945075     0.29300
C2748       C  0.12804279  0.47035805  0.98361523    -0.21500
C2749       C  0.14637503  0.46282370  0.97825088    -0.09500
C2750       C  0.15164858  0.45897987  0.94833149     0.29300
F2751       F  0.16826318  0.45043259  0.94237871    -0.20100
H2752       H  0.14729443  0.46479584  0.90147138     0.17700
H2753       H  0.12373513  0.47345194  0.00648006     0.17700
F2754       F  0.10247409  0.48742125  0.96521607    -0.20000
C2755       C  0.12307960  0.35640496  0.53206673    -0.21500
C2756       C  0.14580458  0.36815724  0.54917792    -0.09500
C2757       C  0.15265185  0.35231216  0.56539383     0.29300
C2758       C  0.13793621  0.32560887  0.56325885    -0.21500
C2759       C  0.11593940  0.31369353  0.54494741    -0.09500
C2760       C  0.10828418  0.32944017  0.52983917     0.29300
F2761       F  0.08698835  0.31893037  0.51223602    -0.20100
H2762       H  0.11717322  0.36808953  0.51967950     0.17700
H2763       H  0.14425422  0.31423280  0.57559596     0.17700
F2764       F  0.17371397  0.36255349  0.58344874    -0.20000
C2765       C  0.95935552  0.11903331  0.00494757    -0.21500
C2766       C  0.95047265  0.12665046  0.97992176    -0.09500
C2767       C  0.96800778  0.14828806  0.96316369     0.29300
C2768       C  0.99063348  0.16493792  0.47213358    -0.21500
C2769       C  0.00172888  0.15713199  0.99927213    -0.09500
C2770       C  0.98489296  0.13430622  0.01475744     0.29300
F2771       F  0.99224949  0.12829339  0.04099399    -0.20100
H2772       H  0.94608371  0.10247384  0.01818963     0.17700
H2773       H  0.00126296  0.18378123  0.46179696     0.17700
F2774       F  0.95519233  0.15675678  0.44154411    -0.20000
C2775       C  0.69289827  0.19982297  0.70568233    -0.21500
C2776       C  0.71176189  0.21270965  0.68336792    -0.09500
C2777       C  0.70406810  0.21124388  0.65321209     0.29300
C2778       C  0.67803283  0.19648960  0.64545103    -0.21500
C2779       C  0.65920074  0.18224239  0.66745002    -0.09500
C2780       C  0.66688223  0.18441333  0.69783114     0.29300
F2781       F  0.64939371  0.17116671  0.71981936    -0.20100
H2782       H  0.69849160  0.20070623  0.72906847     0.17700
H2783       H  0.67280647  0.19505803  0.62185887     0.17700
F2784       F  0.72180209  0.22376175  0.63119174    -0.20000
C2785       C  0.85635831  0.31462147  0.79167240    -0.21500
C2786       C  0.85459866  0.32252659  0.76243339    -0.09500
C2787       C  0.86340456  0.34853558  0.75669221     0.29300
C2788       C  0.87207202  0.36611382  0.78034599    -0.21500
C2789       C  0.87147142  0.35792521  0.81020982    -0.09500
C2790       C  0.86465852  0.33221965  0.81561396     0.29300
F2791       F  0.86325436  0.32352176  0.84420596    -0.20100
H2792       H  0.84918925  0.29447395  0.79638065     0.17700
H2793       H  0.87742224  0.38585043  0.77559815     0.17700
F2794       F  0.86159102  0.35651427  0.72860019    -0.20000
C2795       C  0.81075389  0.25521428  0.58420617    -0.21500
C2796       C  0.80450171  0.23486564  0.60440927    -0.09500
C2797       C  0.79375748  0.20968097  0.59292282     0.29300
C2798       C  0.78786552  0.20501593  0.56212566    -0.21500
C2799       C  0.79230605  0.22530018  0.54277608    -0.09500
C2800       C  0.80443677  0.25048133  0.55386226     0.29300
F2801       F  0.80892789  0.27042929  0.53559190    -0.20100
H2802       H  0.81923112  0.27484606  0.59210616     0.17700
H2803       H  0.77826350  0.18543563  0.55383091     0.17700
F2804       F  0.78787290  0.18951481  0.61148372    -0.20000
C2805       C  0.75751819  0.19664503  0.80257470    -0.21500
C2806       C  0.77208181  0.22278271  0.79460576    -0.09500
C2807       C  0.78360009  0.24117400  0.81776626     0.29300
C2808       C  0.78030123  0.23367836  0.84778983    -0.21500
C2809       C  0.76533347  0.20774126  0.85603718    -0.09500
C2810       C  0.75399481  0.18912070  0.83308277     0.29300
F2811       F  0.73950634  0.16379098  0.84000300    -0.20100
H2812       H  0.74856153  0.18209629  0.78526433     0.17700
H2813       H  0.78923186  0.24858335  0.86473248     0.17700
F2814       F  0.79813940  0.26668830  0.81170168    -0.20000
C2815       C  0.85563415  0.03213922  0.71149458    -0.21500
C2816       C  0.87527670  0.04989184  0.73032950    -0.09500
C2817       C  0.87985435  0.04126998  0.75779858     0.29300
C2818       C  0.86366086  0.01571404  0.76714774    -0.21500
C2819       C  0.84275934  0.99831078  0.74916359    -0.09500
C2820       C  0.83976216  0.00659409  0.72049846     0.29300
F2821       F  0.82063501  0.99045091  0.70171150    -0.20100
H2822       H  0.85191010  0.03838687  0.69011834     0.17700
H2823       H  0.86657596  0.01002554  0.78929880     0.17700
F2824       F  0.89848081  0.05801154  0.77669351    -0.20000
C2825       C  0.86051878  0.18909826  0.73834061    -0.21500
C2826       C  0.88068139  0.19390671  0.71832349    -0.09500
C2827       C  0.88816827  0.21353923  0.69673736     0.29300
C2828       C  0.87450235  0.22678746  0.69408831    -0.21500
C2829       C  0.85328512  0.22081703  0.71302079    -0.09500
C2830       C  0.84709213  0.20241217  0.73594717     0.29300
F2831       F  0.82768287  0.19680531  0.75577300    -0.20100
H2832       H  0.85472948  0.17450563  0.75568185     0.17700
H2833       H  0.87985983  0.24096568  0.67633946     0.17700
F2834       F  0.90760043  0.21886284  0.67708750    -0.20000
C2835       C  0.91729299  0.14473040  0.83175368    -0.21500
C2836       C  0.89537995  0.13705487  0.81399665    -0.09500
C2837       C  0.87108280  0.12639437  0.82779281     0.29300
C2838       C  0.86880039  0.12307219  0.85910067    -0.21500
C2839       C  0.89059762  0.12953887  0.87665862    -0.09500
C2840       C  0.91490537  0.14052404  0.86283867     0.29300
F2841       F  0.93619996  0.14654958  0.87930183    -0.20100
H2842       H  0.93612087  0.15288524  0.82132461     0.17700
H2843       H  0.84988369  0.11412295  0.86943427     0.17700
F2844       F  0.84965019  0.11899307  0.81097932    -0.20000
C2845       C  0.85729656  0.08652386  0.61494081    -0.21500
C2846       C  0.87193479  0.11117150  0.62724031    -0.09500
C2847       C  0.88066625  0.13278314  0.60845844     0.29300
C2848       C  0.87598408  0.12964763  0.57738505    -0.21500
C2849       C  0.86168295  0.10495203  0.56491808    -0.09500
C2850       C  0.85171540  0.08338290  0.58410006     0.29300
F2851       F  0.83799749  0.05922345  0.57275867    -0.20100
H2852       H  0.85068567  0.06970116  0.62915815     0.17700
H2853       H  0.88380282  0.14647212  0.56298552     0.17700
F2854       F  0.89500158  0.15682534  0.61991621    -0.20000
C2855       C  0.99743073  0.21125295  0.64988996    -0.21500
C2856       C  0.97307555  0.18985788  0.64376312    -0.09500
C2857       C  0.96633354  0.18223602  0.61354316     0.29300
C2858       C  0.98443190  0.19390950  0.59057232    -0.21500
C2859       C  0.00953821  0.21335097  0.59710340    -0.09500
C2860       C  0.01564338  0.22293484  0.62665149     0.29300
F2861       F  0.03984079  0.24176893  0.63349901    -0.20100
H2862       H  0.00308408  0.21761045  0.67290535     0.17700
H2863       H  0.97950963  0.18613723  0.56792287     0.17700
F2864       F  0.94288519  0.16217697  0.60632316    -0.20000
C2865       C  0.84180699  0.96610385  0.99483277    -0.21500
C2866       C  0.82389128  0.95283712  0.52441541    -0.09500
C2867       C  0.81892394  0.96990430  0.54095223     0.29300
C2868       C  0.82980533  0.99557787  0.53223205    -0.21500
C2869       C  0.84564451  0.00490196  0.50655464    -0.09500
C2870       C  0.85142657  0.99147186  0.98469783     0.29300
F2871       F  0.86360500  0.99834877  0.95756576    -0.20100
H2872       H  0.84424873  0.95268844  0.98084798     0.17700
H2873       H  0.82459703  0.00779376  0.54474265     0.17700
F2874       F  0.80268414  0.96150202  0.56503917    -0.20000
C2875       C  0.74789170  0.88827538  0.89663885    -0.21500
C2876       C  0.76014067  0.87920504  0.87741384    -0.09500
C2877       C  0.77009352  0.86432953  0.88917444     0.29300
C2878       C  0.76848690  0.85926734  0.92008878    -0.21500
C2879       C  0.75775010  0.86974600  0.93966730    -0.09500
C2880       C  0.74697958  0.88389615  0.92770516     0.29300
F2881       F  0.73614555  0.89395391  0.94609381    -0.20100
H2882       H  0.74044202  0.90004949  0.88780813     0.17700
H2883       H  0.77696524  0.84841983  0.92895038     0.17700
F2884       F  0.78220209  0.85555679  0.87089630    -0.20000
C2885       C  0.78284568  0.89384986  0.64789173    -0.21500
C2886       C  0.76339497  0.89118844  0.62816246    -0.09500
C2887       C  0.74199768  0.89194772  0.63991405     0.29300
C2888       C  0.74073966  0.89616789  0.67090764    -0.21500
C2889       C  0.76040088  0.89885264  0.69031387    -0.09500
C2890       C  0.78134638  0.89748710  0.67856469     0.29300
F2891       F  0.80085934  0.90048852  0.69668848    -0.20100
H2892       H  0.79942327  0.89307446  0.63956306     0.17700
H2893       H  0.72437224  0.89702542  0.67981023     0.17700
F2894       F  0.72277693  0.88923520  0.62153177    -0.20000
C2895       C  0.47435493  0.78115184  0.58006136    -0.21500
C2896       C  0.49144350  0.78966368  0.55540188    -0.09500
C2897       C  0.49624982  0.81210026  0.54005225     0.29300
C2898       C  0.48626248  0.82704742  0.55092095    -0.21500
C2899       C  0.47142914  0.82007283  0.57737846    -0.09500
C2900       C  0.46443723  0.79636917  0.59116449     0.29300
F2901       F  0.45054635  0.78939760  0.61715603    -0.20100
H2902       H  0.47054082  0.76399531  0.59228557     0.17700
H2903       H  0.49181674  0.84522263  0.53997116     0.17700
F2904       F  0.51217860  0.82061151  0.51575004    -0.20000
C2905       C  0.64769424  0.81149597  0.56446940    -0.21500
C2906       C  0.63175076  0.78661311  0.55312430    -0.09500
C2907       C  0.64328832  0.77353610  0.53973661     0.29300
C2908       C  0.67018397  0.78589816  0.53637820    -0.21500
C2909       C  0.68572658  0.81137432  0.54613530    -0.09500
C2910       C  0.67426213  0.82374995  0.56097090     0.29300
F2911       F  0.68880851  0.84809761  0.57151874    -0.20100
H2912       H  0.63956719  0.82190923  0.57549865     0.17700
H2913       H  0.67871317  0.77611004  0.52477597     0.17700
F2914       F  0.62864808  0.74942091  0.52862145    -0.20000
C2915       C  0.55758535  0.76094109  0.66785610    -0.21500
C2916       C  0.55649511  0.77740046  0.64601869    -0.09500
C2917       C  0.55336327  0.79797307  0.65572674     0.29300
C2918       C  0.55050218  0.80133646  0.68626337    -0.21500
C2919       C  0.55083157  0.78453518  0.70801398    -0.09500
C2920       C  0.55482785  0.76447713  0.69866674     0.29300
F2921       F  0.55481051  0.74762388  0.71902784    -0.20100
H2922       H  0.55987208  0.74489700  0.66105005     0.17700
H2923       H  0.54772614  0.81712038  0.69290806     0.17700
F2924       F  0.55273290  0.81480307  0.63581286    -0.20000
C2925       C  0.57836473  0.79184115  0.93916505    -0.21500
C2926       C  0.56500232  0.79881352  0.95956960    -0.09500
C2927       C  0.55455203  0.81366351  0.94946011     0.29300
C2928       C  0.55669134  0.82084504  0.91926078    -0.21500
C2929       C  0.56884087  0.81289191  0.89817457    -0.09500
C2930       C  0.58020200  0.79867903  0.90856706     0.29300
F2931       F  0.59200654  0.79038650  0.88913030    -0.20100
H2932       H  0.58614460  0.77995934  0.94659718     0.17700
H2933       H  0.54775828  0.83177755  0.91221692     0.17700
F2934       F  0.54143416  0.82050556  0.96868317    -0.20000
C2935       C  0.52458124  0.64979426  0.96408420    -0.21500
C2936       C  0.52790952  0.65803524  0.93395904    -0.09500
C2937       C  0.54046336  0.68444396  0.92765082     0.29300
C2938       C  0.54730138  0.70217842  0.95116633    -0.21500
C2939       C  0.54179471  0.69382677  0.98131319    -0.09500
C2940       C  0.53156566  0.66754560  0.98772815     0.29300
F2941       F  0.52799488  0.65934064  0.51777173    -0.20100
H2942       H  0.51453010  0.62947056  0.96925255     0.17700
H2943       H  0.55527129  0.72233242  0.94569610     0.17700
F2944       F  0.54378158  0.69287129  0.89866550    -0.20000
C2945       C  0.48344876  0.67881993  0.80567846    -0.21500
C2946       C  0.48306647  0.67231616  0.83616534    -0.09500
C2947       C  0.49070792  0.69155098  0.85823339     0.29300
C2948       C  0.49985928  0.71709431  0.84986439    -0.21500
C2949       C  0.50111539  0.72390381  0.81937108    -0.09500
C2950       C  0.49212471  0.70444209  0.79728672     0.29300
F2951       F  0.49376634  0.71049627  0.76754718    -0.20100
H2952       H  0.47822571  0.66432855  0.78835563     0.17700
H2953       H  0.50682235  0.73176761  0.86719686     0.17700
F2954       F  0.49082027  0.68584926  0.88785246    -0.20000
C2955       C  0.53019644  0.52506988  0.90561351    -0.21500
C2956       C  0.55180134  0.53076903  0.88779443    -0.09500
C2957       C  0.56088720  0.55135872  0.86722279     0.29300
C2958       C  0.54751137  0.56482883  0.86348019    -0.21500
C2959       C  0.52502214  0.55808471  0.88030518    -0.09500
C2960       C  0.51703567  0.53847874  0.90211920     0.29300
F2961       F  0.49604174  0.53165462  0.91975505    -0.20100
H2962       H  0.52302544  0.50966968  0.92208097     0.17700
H2963       H  0.55422324  0.57989763  0.84664202     0.17700
F2964       F  0.58176471  0.55756567  0.84966385    -0.20000
C2965       C  0.65276453  0.52855771  0.75995165    -0.21500
C2966       C  0.67860948  0.54625429  0.76602414    -0.09500
C2967       C  0.68587985  0.55514056  0.79570661     0.29300
C2968       C  0.66783626  0.54467510  0.81932352    -0.21500
C2969       C  0.64247582  0.52501517  0.81354783    -0.09500
C2970       C  0.63480130  0.51807388  0.78334129     0.29300
F2971       F  0.61033841  0.49972731  0.77652813    -0.20100
H2972       H  0.64691131  0.52121650  0.73726030     0.17700
H2973       H  0.67425793  0.55036072  0.84231265     0.17700
F2974       F  0.71086332  0.57191535  0.80225985    -0.20000
C2975       C  0.78926461  0.80737123  0.65803760    -0.21500
C2976       C  0.80024286  0.79229795  0.65063092    -0.09500
C2977       C  0.79988654  0.78481068  0.62053964     0.29300
C2978       C  0.79101836  0.79455994  0.59775449    -0.21500
C2979       C  0.78264558  0.81197016  0.60492213    -0.09500
C2980       C  0.78034723  0.81702752  0.63543352     0.29300
F2981       F  0.77130995  0.83290730  0.64324034    -0.20100
H2982       H  0.78956991  0.81342879  0.68115712     0.17700
H2983       H  0.79292704  0.79038654  0.57440771     0.17700
F2984       F  0.81044354  0.77025526  0.61289139    -0.20000
C2985       C  0.82432853  0.68432370  0.70915842    -0.21500
C2986       C  0.81128774  0.69819839  0.70896471    -0.09500
C2987       C  0.78424155  0.68460220  0.70658965     0.29300
C2988       C  0.77070239  0.65762160  0.70435757    -0.21500
C2989       C  0.78383277  0.64375225  0.70532358    -0.09500
C2990       C  0.81087554  0.65751354  0.70769297     0.29300
F2991       F  0.82452687  0.64510676  0.70794576    -0.20100
H2992       H  0.84509272  0.69426864  0.71110381     0.17700
H2993       H  0.74995194  0.64755616  0.70229156     0.17700
F2994       F  0.77096890  0.69738713  0.70589580    -0.20000
C2995       C  0.82532166  0.84028466  0.77708326    -0.21500
C2996       C  0.84495896  0.85012173  0.75530798    -0.09500
C2997       C  0.85577257  0.87593833  0.74626269     0.29300
C2998       C  0.84524059  0.89076254  0.75694317    -0.21500
C2999       C  0.82384041  0.87985926  0.77651139    -0.09500
C3000       C  0.81473480  0.85477607  0.78744098     0.29300
F3001       F  0.79467586  0.84364616  0.80711907    -0.20100
H3002       H  0.81692462  0.82055952  0.78471671     0.17700
H3003       H  0.85267737  0.91009574  0.74840359     0.17700
F3004       F  0.87482986  0.88605859  0.72526828    -0.20000
C3005       C  0.86414324  0.84173381  0.96273099    -0.21500
C3006       C  0.87529646  0.83330588  0.98451868    -0.09500
C3007       C  0.87198904  0.84027728  0.51179758     0.29300
C3008       C  0.85521805  0.84902148  0.51997738    -0.21500
C3009       C  0.84312100  0.85311370  0.00223823    -0.09500
C3010       C  0.84785143  0.85119737  0.97145392     0.29300
F3011       F  0.83640558  0.85801107  0.94988736    -0.20100
H3012       H  0.86683071  0.83958331  0.93893983     0.17700
H3013       H  0.85609142  0.85574022  0.54286923     0.17700
F3014       F  0.88867397  0.84050812  0.53254962    -0.20000
C3015       C  0.91636163  0.77446360  0.58567298    -0.21500
C3016       C  0.89825422  0.77048822  0.56308515    -0.09500
C3017       C  0.87560106  0.77041725  0.57140741     0.29300
C3018       C  0.87159745  0.77496907  0.60121489    -0.21500
C3019       C  0.88971629  0.77937513  0.62373435    -0.09500
C3020       C  0.91200681  0.77855462  0.61589028     0.29300
F3021       F  0.93011251  0.78303172  0.63697366    -0.20100
H3022       H  0.93407648  0.77485960  0.57983284     0.17700
H3023       H  0.85432232  0.77550592  0.60664393     0.17700
F3024       F  0.85788895  0.76749954  0.55046617    -0.20000
C3025       C  0.86021262  0.78871438  0.86365738    -0.21500
C3026       C  0.87281759  0.77620750  0.87488908    -0.09500
C3027       C  0.87694040  0.75999262  0.85572683     0.29300
C3028       C  0.86947395  0.75713432  0.82542596    -0.21500
C3029       C  0.85787168  0.77052656  0.81354238    -0.09500
C3030       C  0.85282421  0.78601830  0.83325926     0.29300
F3031       F  0.84216041  0.79980240  0.82291215    -0.20100
H3032       H  0.85729283  0.80162028  0.87803429     0.17700
H3033       H  0.87352394  0.74501910  0.81102952     0.17700
F3034       F  0.88891803  0.74748923  0.86617520    -0.20000
C3035       C  0.69464737  0.50135449  0.95806017    -0.21500
C3036       C  0.71297636  0.50355139  0.93676358    -0.09500
C3037       C  0.70531278  0.49553185  0.90697613     0.29300
C3038       C  0.67991664  0.48662679  0.89826968    -0.21500
C3039       C  0.66192437  0.48635835  0.91888161    -0.09500
C3040       C  0.66932737  0.49310769  0.94918568     0.29300
F3041       F  0.65251467  0.49291261  0.96988375    -0.20100
H3042       H  0.70039198  0.50781365  0.98103893     0.17700
H3043       H  0.67483347  0.48163575  0.87481469     0.17700
F3044       F  0.72273669  0.49754968  0.88595240    -0.20000
C3045       C  0.88831273  0.68267993  0.95690640    -0.21500
C3046       C  0.87430746  0.69567729  0.95873924    -0.09500
C3047       C  0.84727468  0.68113877  0.95848325     0.29300
C3048       C  0.83464063  0.65436525  0.95668383    -0.21500
C3049       C  0.84847570  0.64126915  0.95449876    -0.09500
C3050       C  0.87555516  0.65572084  0.95434890     0.29300
F3051       F  0.88964492  0.64382382  0.95246377    -0.20100
H3052       H  0.90914307  0.69343160  0.95719172     0.17700
H3053       H  0.81764488  0.64678361  0.45680039     0.24900
F3054       F  0.83671753  0.69568301  0.45976382    -0.20000
C3055       C  0.82181756  0.49029992  0.88666018    -0.21500
C3056       C  0.80805952  0.48472474  0.91382861    -0.09500
C3057       C  0.80195398  0.46193859  0.92940111     0.29300
C3058       C  0.81208996  0.44657779  0.91947052    -0.21500
C3059       C  0.82820698  0.45387563  0.89395321    -0.09500
C3060       C  0.83167445  0.47498817  0.87666579     0.29300
F3061       F  0.84598357  0.48174322  0.85096276    -0.20100
H3062       H  0.82647643  0.50761731  0.87421730     0.17700
H3063       H  0.80905293  0.43026778  0.93296205     0.17700
F3064       F  0.78859409  0.45604752  0.95576017    -0.20000
C3065       C  0.78595951  0.58061510  0.84177665    -0.21500
C3066       C  0.79968822  0.56891714  0.85233961    -0.09500
C3067       C  0.80647663  0.55546690  0.83147398     0.29300
C3068       C  0.79900059  0.55327933  0.80117266    -0.21500
C3069       C  0.78435155  0.56403580  0.79126313    -0.09500
C3070       C  0.77820667  0.57804645  0.81164413     0.29300
F3071       F  0.76418065  0.58879359  0.80246979    -0.20100
H3072       H  0.78043697  0.59108767  0.85706411     0.17700
H3073       H  0.80346672  0.54201491  0.78581586     0.17700
F3074       F  0.81920627  0.54331433  0.84048693    -0.20000
C3075       C  0.74799074  0.56114221  0.55036525    -0.21500
C3076       C  0.77230305  0.56485909  0.54251056    -0.09500
C3077       C  0.79149132  0.57339406  0.56470620     0.29300
C3078       C  0.78621521  0.57716967  0.59437118    -0.21500
C3079       C  0.76152720  0.57205889  0.60291165    -0.09500
C3080       C  0.74247842  0.56441802  0.58039201     0.29300
F3081       F  0.71841470  0.55949608  0.58742526    -0.20100
H3082       H  0.73293831  0.55455182  0.53357550     0.17700
H3083       H  0.80132367  0.58307434  0.61098440     0.17700
F3084       F  0.81538685  0.57776026  0.55776618    -0.20000
C3085       C  0.16128779  0.53061820  0.62761511    -0.21500
C3086       C  0.16398324  0.55124155  0.60999796    -0.09500
C3087       C  0.17816298  0.55721987  0.58303023     0.29300
C3088       C  0.18764797  0.54145275  0.57276759    -0.21500
C3089       C  0.18326031  0.51957229  0.58932338    -0.09500
C3090       C  0.17104247  0.51509941  0.61766732     0.29300
F3091       F  0.16735320  0.49501157  0.63519108    -0.20100
H3092       H  0.15060777  0.52584771  0.64864041     0.17700
H3093       H  0.19709362  0.54553992  0.55096159     0.17700
F3094       F  0.18081916  0.57681450  0.56531354    -0.20000
C3095       C  0.11605602  0.55243969  0.51559937    -0.21500
C3096       C  0.10176328  0.56429013  0.52330958    -0.09500
C3097       C  0.09011205  0.57281360  0.99957627     0.29300
C3098       C  0.09399704  0.56878666  0.96924491    -0.21500
C3099       C  0.11325055  0.56302883  0.96123179    -0.09500
C3100       C  0.12932072  0.56256694  0.98404370     0.29300
F3101       F  0.14922737  0.55870230  0.97748649    -0.20100
H3102       H  0.12434143  0.54609342  0.53289221     0.17700
H3103       H  0.08156202  0.56956635  0.95215688     0.17700
F3104       F  0.07783589  0.58412214  0.50641811    -0.20000
C3105       C  0.10852294  0.52633565  0.75067239    -0.21500
C3106       C  0.09366747  0.53148838  0.77110145    -0.09500
C3107       C  0.08019847  0.54346456  0.76028683     0.29300
C3108       C  0.08251669  0.55093488  0.72994514    -0.21500
C3109       C  0.09858675  0.54698798  0.71034458    -0.09500
C3110       C  0.11117104  0.53422627  0.72071335     0.29300
F3111       F  0.12643139  0.52980997  0.70189946    -0.20100
H3112       H  0.11905288  0.51708028  0.75810020     0.17700
H3113       H  0.07272394  0.56082284  0.72208381     0.17700
F3114       F  0.06549661  0.54868136  0.77905730    -0.20000
C3115       C  0.79825936  0.34451548  0.67147928    -0.21500
C3116       C  0.80715181  0.32946979  0.65719806    -0.09500
C3117       C  0.82321959  0.33941365  0.63186382     0.29300
C3118       C  0.83228282  0.36471679  0.62286180    -0.21500
C3119       C  0.82578447  0.38081503  0.63903846    -0.09500
C3120       C  0.80754703  0.37016127  0.66247555     0.29300
F3121       F  0.80074086  0.38508675  0.67849281    -0.20100
H3122       H  0.78600696  0.33722183  0.69124360     0.17700
H3123       H  0.84591758  0.37231748  0.60432353     0.17700
F3124       F  0.83171345  0.32522852  0.61717293    -0.20000
C3125       C  0.87461147  0.51677391  0.52931142    -0.21500
C3126       C  0.87471334  0.52398139  0.55950316    -0.09500
C3127       C  0.87088092  0.54479025  0.56586998     0.29300
C3128       C  0.86381858  0.55585904  0.54269904    -0.21500
C3129       C  0.86089077  0.54647794  0.51315348    -0.09500
C3130       C  0.86774020  0.52790787  0.50630014     0.29300
F3131       F  0.86491785  0.51848670  0.47781777    -0.20100
H3132       H  0.87788212  0.50107809  0.52376384     0.17700
H3133       H  0.85815489  0.56986306  0.54833342     0.17700
F3134       F  0.87097989  0.55239620  0.59474092    -0.20000
C3135       C  0.87232650  0.43440499  0.76839965    -0.21500
C3136       C  0.88820677  0.45383142  0.78856969    -0.09500
C3137       C  0.90638113  0.47818542  0.77752879     0.29300
C3138       C  0.90834537  0.48292965  0.74641678    -0.21500
C3139       C  0.89265084  0.46321630  0.72622555    -0.09500
C3140       C  0.87462798  0.43886002  0.73755204     0.29300
F3141       F  0.85866851  0.41945258  0.71890899    -0.20100
H3142       H  0.85814680  0.41552263  0.77657395     0.17700
H3143       H  0.92221646  0.50185830  0.73809406     0.17700
F3144       F  0.92154155  0.49744071  0.79675308    -0.20000
C3145       C  0.87107232  0.44101666  0.51773407    -0.21500
C3146       C  0.88953702  0.44247177  0.53819657    -0.09500
C3147       C  0.91100847  0.44140126  0.52731962     0.29300
C3148       C  0.91419921  0.43769211  0.99637946    -0.21500
C3149       C  0.89950043  0.44291790  0.97596183    -0.09500
C3150       C  0.88419929  0.45282604  0.98696729     0.29300
F3151       F  0.86968532  0.45828297  0.96828564    -0.20100
H3152       H  0.85440499  0.44191815  0.52544808     0.17700
H3153       H  0.92632621  0.43035159  0.98833386     0.17700
F3154       F  0.92908925  0.44256425  0.54655136    -0.20000
C3155       C  0.98188243  0.54757127  0.62688030    -0.21500
C3156       C  0.96827671  0.52052045  0.62597692    -0.09500
C3157       C  0.98221034  0.50765558  0.62163491     0.29300
C3158       C  0.00887598  0.52141322  0.61854651    -0.21500
C3159       C  0.02269457  0.54841658  0.61977015    -0.09500
C3160       C  0.00888968  0.56145256  0.62403351     0.29300
F3161       F  0.02136913  0.58749327  0.62530417    -0.20100
H3162       H  0.97166502  0.55794819  0.63033973     0.17700
H3163       H  0.01874610  0.51066663  0.61528491     0.17700
F3164       F  0.97008539  0.48160659  0.61999366    -0.20000
C3165       C  0.79904035  0.48912307  0.64503171    -0.21500
C3166       C  0.81727043  0.48912179  0.66498206    -0.09500
C3167       C  0.81807103  0.49763661  0.69483250     0.29300
C3168       C  0.80163724  0.50670900  0.70397953    -0.21500
C3169       C  0.78458411  0.50801416  0.68343265    -0.09500
C3170       C  0.78314487  0.49879903  0.65398219     0.29300
F3171       F  0.76683893  0.49982040  0.63362521    -0.20100
H3172       H  0.79796506  0.48285361  0.62188719     0.17700
H3173       H  0.80324248  0.51407427  0.72668011     0.17700
F3174       F  0.83521603  0.49794492  0.71492492    -0.20000
C3175       C  0.98213947  0.80203464  0.83991214    -0.21500
C3176       C  0.00690551  0.80571492  0.84389155    -0.09500
C3177       C  0.01285294  0.79773170  0.87097729     0.29300
C3178       C  0.99512226  0.78905611  0.89503234    -0.21500
C3179       C  0.97143236  0.78820545  0.89195013    -0.09500
C3180       C  0.96454314  0.79339743  0.86370155     0.29300
F3181       F  0.94173834  0.79259273  0.85997672    -0.20100
H3182       H  0.97724190  0.80806743  0.81918647     0.17700
H3183       H  0.00083377  0.78540337  0.91675390     0.17700
F3184       F  0.03666302  0.80103627  0.87532090    -0.20000
C3185       C  0.99111679  0.85432764  0.72007371    -0.21500
C3186       C  0.99748720  0.85765061  0.75081939    -0.09500
C3187       C  0.97841305  0.85320227  0.77225390     0.29300
C3188       C  0.95288974  0.84341487  0.76324341    -0.21500
C3189       C  0.94615648  0.83867728  0.73264440    -0.09500
C3190       C  0.96566610  0.84536089  0.71092911     0.29300
F3191       F  0.95974194  0.84083088  0.68118846    -0.20100
H3192       H  0.00550724  0.85730157  0.70335053     0.17700
H3193       H  0.93815174  0.83834062  0.78028318     0.17700
F3194       F  0.98406633  0.85616387  0.80214956    -0.20000
C3195       C  0.15454870  0.81582545  0.78158979    -0.21500
C3196       C  0.14182551  0.78973062  0.78978929    -0.09500
C3197       C  0.11498356  0.77699138  0.79472494     0.29300
C3198       C  0.10143100  0.79030421  0.79181983    -0.21500
C3199       C  0.11448907  0.81660481  0.78477335    -0.09500
C3200       C  0.14114944  0.82917509  0.77937774     0.29300
F3201       F  0.15426237  0.85442087  0.77158009    -0.20100
H3202       H  0.17511544  0.82618281  0.77759357     0.17700
H3203       H  0.08087861  0.78026666  0.79589808     0.17700
F3204       F  0.10182894  0.75174252  0.80241965    -0.20000
C3205       C  0.15296180  0.65734997  0.85596429    -0.21500
C3206       C  0.17578809  0.67136454  0.83926095    -0.09500
C3207       C  0.19086118  0.65993472  0.83298102     0.29300
C3208       C  0.18186242  0.63415918  0.84109092    -0.21500
C3209       C  0.15783180  0.61972429  0.85532916    -0.09500
C3210       C  0.14399136  0.63182735  0.86373139     0.29300
F3211       F  0.12119460  0.61858872  0.87859837    -0.20100
H3212       H  0.14121746  0.66576098  0.86167466     0.17700
H3213       H  0.19288090  0.62510505  0.83477363     0.17700
F3214       F  0.21317175  0.67289947  0.81716208    -0.20000
C3215       C  0.12306678  0.65947525  0.73969083    -0.21500
C3216       C  0.13397486  0.68570564  0.73338148    -0.09500
C3217       C  0.13419950  0.69354433  0.70339409     0.29300
C3218       C  0.12594060  0.67543151  0.67979938    -0.21500
C3219       C  0.11750539  0.64944899  0.68605021    -0.09500
C3220       C  0.11469827  0.64147879  0.71639243     0.29300
F3221       F  0.10596109  0.61645444  0.72340658    -0.20100
H3222       H  0.12291807  0.65310997  0.76261048     0.17700
H3223       H  0.12841007  0.68206503  0.65665228     0.17700
F3224       F  0.14467700  0.71886555  0.69668458    -0.20000
C3225       C  0.18416069  0.70070639  0.54189986    -0.21500
C3226       C  0.20544493  0.71823787  0.55901968    -0.09500
C3227       C  0.21204245  0.70932819  0.58483618     0.29300
C3228       C  0.19641462  0.68381691  0.59454446    -0.21500
C3229       C  0.17404090  0.66662794  0.57854606    -0.09500
C3230       C  0.16881510  0.67512255  0.55119493     0.29300
F3231       F  0.14820498  0.65915495  0.53406288    -0.20100
H3232       H  0.17891274  0.70709632  0.52167078     0.17700
H3233       H  0.20110266  0.67796405  0.61556530     0.17700
F3234       F  0.23230950  0.72578585  0.60204453    -0.20000
C3235       C  0.35701414  0.83391269  0.62221012    -0.21500
C3236       C  0.37661452  0.84038594  0.60069100    -0.09500
C3237       C  0.36992286  0.83564985  0.57006316     0.29300
C3238       C  0.34440025  0.82586422  0.56101172    -0.21500
C3239       C  0.32502552  0.82127196  0.58215807    -0.09500
C3240       C  0.33143991  0.82472464  0.61305149     0.29300
F3241       F  0.31319254  0.81990266  0.63425596    -0.20100
H3242       H  0.36176410  0.83746986  0.64594438     0.17700
H3243       H  0.34010848  0.82343264  0.53710387     0.17700
F3244       F  0.38830330  0.84137239  0.54872547    -0.20000
C3245       C  0.23736836  0.81700196  0.66721093    -0.21500
C3246       C  0.22497314  0.79814792  0.64472127    -0.09500
C3247       C  0.21006296  0.77224180  0.65361242     0.29300
C3248       C  0.20789987  0.76545047  0.68375893    -0.21500
C3249       C  0.22024712  0.78397378  0.70638757    -0.09500
C3250       C  0.23491349  0.81003191  0.69791777     0.29300
F3251       F  0.24715263  0.82860577  0.71901860    -0.20100
H3252       H  0.24906099  0.83705960  0.66103562     0.17700
H3253       H  0.19632190  0.74522770  0.68925332     0.17700
F3254       F  0.19785178  0.75299321  0.63322586    -0.20000
C3255       C  0.19456708  0.79108833  0.90938310    -0.21500
C3256       C  0.18908793  0.76751107  0.89637343    -0.09500
C3257       C  0.18980124  0.74879883  0.91480759     0.29300
C3258       C  0.19699990  0.75406226  0.94502019    -0.21500
C3259       C  0.20311800  0.77778072  0.95783443    -0.09500
C3260       C  0.20119973  0.79609330  0.94002730     0.29300
F3261       F  0.20723062  0.81931641  0.95172104    -0.20100
H3262       H  0.19413658  0.80578259  0.89570283     0.17700
H3263       H  0.19837829  0.73969796  0.95834608     0.17700
F3264       F  0.18506181  0.72590738  0.90326220    -0.20000
C3265       C  0.02677129  0.86229314  0.53800235    -0.21500
C3266       C  0.04269753  0.88584332  0.52349061    -0.09500
C3267       C  0.03173119  0.89469204  0.50194340     0.29300
C3268       C  0.00597942  0.87875369  0.49286908    -0.21500
C3269       C  0.99101954  0.85404674  0.50540203    -0.09500
C3270       C  0.00129459  0.84661719  0.52919523     0.29300
F3271       F  0.98720414  0.82321640  0.54246314    -0.20100
H3272       H  0.03450030  0.85530352  0.55523819     0.17700
H3273       H  0.00017778  0.88152559  0.97184672     0.17700
F3274       F  0.04640909  0.91753294  0.48778657    -0.20000
C3275       C  0.21149568  0.90075671  0.52870627    -0.21500
C3276       C  0.18631266  0.89105568  0.53986186    -0.09500
C3277       C  0.17473635  0.86771276  0.55579073     0.29300
C3278       C  0.18758495  0.85403433  0.55978135    -0.21500
C3279       C  0.21234351  0.86289747  0.54775872    -0.09500
C3280       C  0.22442433  0.88673350  0.53243395     0.29300
F3281       F  0.24811708  0.89593118  0.51999012    -0.20100
H3282       H  0.22066733  0.91854393  0.51599371     0.17700
H3283       H  0.17284937  0.82984742  0.05931701     0.17700
F3284       F  0.14567150  0.85122922  0.05341522    -0.20000
C3285       C  0.10618352  0.87763528  0.92734361    -0.21500
C3286       C  0.12701143  0.90121401  0.93660047    -0.09500
C3287       C  0.14188965  0.91963159  0.91445023     0.29300
C3288       C  0.13472581  0.91500417  0.88387983    -0.21500
C3289       C  0.11269970  0.89206053  0.87519037    -0.09500
C3290       C  0.09911432  0.87305963  0.89712817     0.29300
F3291       F  0.07841091  0.85017574  0.88945804    -0.20100
H3292       H  0.09474551  0.86284885  0.94372070     0.17700
H3293       H  0.14547767  0.92987683  0.86732984     0.17700
F3294       F  0.16225460  0.94264154  0.92245012    -0.20000
C3295       C  0.07852031  0.87672582  0.63709070    -0.21500
C3296       C  0.10183918  0.88214411  0.62355754    -0.09500
C3297       C  0.12015806  0.87973583  0.64074036     0.29300
C3298       C  0.11534034  0.87272092  0.67130829    -0.21500
C3299       C  0.09200662  0.86751820  0.68490167    -0.09500
C3300       C  0.07350913  0.86933286  0.66728334     0.29300
F3301       F  0.05102819  0.86525514  0.67956269    -0.20100
H3302       H  0.06422917  0.87864967  0.62431202     0.17700
H3303       H  0.12993848  0.87163148  0.68442919     0.17700
F3304       F  0.14318462  0.88551211  0.62848150    -0.20000
C3305       C  0.52891196  0.19073608  0.68521244    -0.21500
C3306       C  0.50651974  0.18555170  0.66923544    -0.09500
C3307       C  0.50145170  0.17202935  0.64172009     0.29300
C3308       C  0.51708186  0.16234052  0.63190132    -0.21500
C3309       C  0.53853069  0.16625540  0.64864733    -0.09500
C3310       C  0.54486901  0.18130402  0.67496659     0.29300
F3311       F  0.56526434  0.18521070  0.69196155    -0.20100
H3312       H  0.53342625  0.20102566  0.70642694     0.17700
H3313       H  0.51188473  0.15092376  0.61146648     0.17700
F3314       F  0.48065026  0.16697872  0.62480781    -0.20000
C3315       C  0.20663801  0.03204704  0.61599847    -0.21500
C3316       C  0.20283011  0.02417556  0.64635979    -0.09500
C3317       C  0.19224556  0.99795056  0.65317532     0.29300
C3318       C  0.18278299  0.97977630  0.63001030    -0.21500
C3319       C  0.18443999  0.98755878  0.59983686    -0.09500
C3320       C  0.19779244  0.01388591  0.59279790     0.29300
F3321       F  0.19963328  0.02198710  0.56381601    -0.20100
H3322       H  0.21485899  0.05218315  0.61029565     0.17700
H3323       H  0.17260359  0.95952763  0.63576282     0.17700
F3324       F  0.18834033  0.98965209  0.68223082    -0.20000
C3325       C  0.34075898  0.12113024  0.70923434    -0.21500
C3326       C  0.35403661  0.14824385  0.70896996    -0.09500
C3327       C  0.33964838  0.16080437  0.71146097     0.29300
C3328       C  0.31307111  0.14684869  0.71415608    -0.21500
C3329       C  0.29957397  0.11986143  0.71465342    -0.09500
C3330       C  0.31365797  0.10696469  0.71185299     0.29300
F3331       F  0.30142490  0.08090689  0.71212748    -0.20100
H3332       H  0.35129597  0.11094901  0.70710561     0.17700
H3333       H  0.30300381  0.15752820  0.71600471     0.17700
F3334       F  0.35119424  0.18685124  0.71178171    -0.20000
C3335       C  0.13005943  0.98539475  0.72826632    -0.21500
C3336       C  0.14591205  0.00428115  0.74923705    -0.09500
C3337       C  0.14390609  0.99738872  0.77994564     0.29300
C3338       C  0.12748479  0.97188890  0.78906157    -0.21500
C3339       C  0.11327639  0.95278977  0.76765844    -0.09500
C3340       C  0.11416244  0.95985674  0.73727701     0.29300
F3341       F  0.10042198  0.94180124  0.71611432    -0.20100
H3342       H  0.13116530  0.99003352  0.70448742     0.17700
H3343       H  0.12719936  0.96675368  0.81255141     0.17700
F3344       F  0.15845828  0.01503457  0.80101721    -0.20000
C3345       C  0.46472524  0.84134143  0.87741015    -0.21500
C3346       C  0.44491614  0.83758302  0.85772758    -0.09500
C3347       C  0.44060192  0.82290449  0.83147981     0.29300
C3348       C  0.45687276  0.81322979  0.82431774    -0.21500
C3349       C  0.47803732  0.81886982  0.84275826    -0.09500
C3350       C  0.48144200  0.83237763  0.86980540     0.29300
F3351       F  0.50193887  0.83835779  0.88778482    -0.20100
H3352       H  0.46840736  0.85288360  0.89757407     0.17700
H3353       H  0.45432953  0.80334528  0.80303893     0.17700
F3354       F  0.42164779  0.81921986  0.81202526    -0.20000
C3355       C  0.40731277  0.89719945  0.74868036    -0.21500
C3356       C  0.42705320  0.90524682  0.77026133    -0.09500
C3357       C  0.45179788  0.91116851  0.76045881     0.29300
C3358       C  0.45601405  0.90730409  0.73038017    -0.21500
C3359       C  0.43594266  0.89788115  0.70935552    -0.09500
C3360       C  0.41175134  0.89373649  0.71840762     0.29300
F3361       F  0.39203099  0.88478506  0.69846073    -0.20100
H3362       H  0.38815083  0.89270637  0.75541244     0.17700
H3363       H  0.47499181  0.91131697  0.72354375     0.17700
F3364       F  0.47172398  0.91954675  0.78006464    -0.20000
C3365       C  0.46702608  0.89590904  0.96747060    -0.21500
C3366       C  0.44557308  0.89816437  0.96001289    -0.09500
C3367       C  0.43467119  0.90662669  0.98211829     0.29300
C3368       C  0.44095513  0.90617689  0.51282230    -0.21500
C3369       C  0.46213115  0.90343172  0.52042313    -0.09500
C3370       C  0.47642622  0.90040483  0.99708884     0.29300
F3371       F  0.49489959  0.89433600  0.50364744    -0.20100
H3372       H  0.47577421  0.88953480  0.95070015     0.17700
H3373       H  0.43081999  0.91048098  0.53003475     0.17700
F3374       F  0.41447173  0.90987247  0.97537231    -0.20000
C3375       C  0.29778511  0.85567553  0.94825882    -0.21500
C3376       C  0.30583455  0.86212054  0.97835013    -0.09500
C3377       C  0.33151238  0.88108011  0.98407710     0.29300
C3378       C  0.34929110  0.89111900  0.96019448    -0.21500
C3379       C  0.34161905  0.88237458  0.93058573    -0.09500
C3380       C  0.31551458  0.86550935  0.92461458     0.29300
F3381       F  0.30769154  0.85628193  0.89628841    -0.20100
H3382       H  0.27809145  0.84126544  0.94320524     0.17700
H3383       H  0.36943122  0.90372734  0.96519880     0.17700
F3384       F  0.33966535  0.88682314  0.51183421    -0.20000
C3385       C  0.32006666  0.82722276  0.80652056    -0.21500
C3386       C  0.33011931  0.82114027  0.83170021    -0.09500
C3387       C  0.31467562  0.79777761  0.84697338     0.29300
C3388       C  0.28888297  0.78188794  0.83853218    -0.21500
C3389       C  0.27856023  0.78901531  0.81455406    -0.09500
C3390       C  0.29454161  0.81130176  0.79795711     0.29300
F3391       F  0.28491709  0.81858461  0.77473387    -0.20100
H3392       H  0.33158893  0.84518643  0.79457687     0.17700
H3393       H  0.27666111  0.76478804  0.85161091     0.17700
F3394       F  0.32370545  0.79158806  0.87171771    -0.20000
C3395       C  0.62867062  0.16860193  0.88331362    -0.21500
C3396       C  0.61090998  0.16626906  0.90561797    -0.09500
C3397       C  0.61957726  0.17379355  0.93523957     0.29300
C3398       C  0.64550005  0.18332387  0.94242736    -0.21500
C3399       C  0.66323616  0.18468480  0.92050145    -0.09500
C3400       C  0.65451209  0.17734568  0.89067801     0.29300
F3401       F  0.67066868  0.17783627  0.86885802    -0.20100
H3402       H  0.62218842  0.16230483  0.86046844     0.17700
H3403       H  0.65137022  0.18832543  0.96569351     0.17700
F3404       F  0.60278870  0.17119689  0.95742704    -0.20000
C3405       C  0.44826725  0.01601763  0.87868125    -0.21500
C3406       C  0.47530422  0.02984228  0.87749416    -0.09500
C3407       C  0.48865106  0.01630085  0.87420314     0.29300
C3408       C  0.47520757  0.98955110  0.87248604    -0.21500
C3409       C  0.44823939  0.97574352  0.87332928    -0.09500
C3410       C  0.43476900  0.98916841  0.87622590     0.29300
F3411       F  0.40867494  0.97632657  0.87749771    -0.20100
H3412       H  0.43759805  0.02601850  0.88142933     0.17700
H3413       H  0.48594881  0.97958909  0.87004225     0.17700
F3414       F  0.51475847  0.02880423  0.87358545    -0.20000
C3415       C  0.53683138  0.08817386  0.49475667    -0.21500
C3416       C  0.51932960  0.09916723  0.98401099    -0.09500
C3417       C  0.51965513  0.11894925  0.00145091     0.29300
C3418       C  0.51850613  0.11031093  0.53624293    -0.21500
C3419       C  0.53462191  0.10124179  0.54611355    -0.09500
C3420       C  0.54326718  0.08957412  0.52535727     0.29300
F3421       F  0.55938628  0.08118812  0.53432067    -0.20100
H3422       H  0.52469671  0.06617401  0.98515129     0.17700
H3423       H  0.51180512  0.11947048  0.55203701     0.17700
F3424       F  0.51492312  0.13673308  0.98880412    -0.20000
C3425       C  0.56532820  0.10183557  0.78690922    -0.21500
C3426       C  0.55385514  0.11650291  0.79483998    -0.09500
C3427       C  0.54506233  0.12615536  0.77151437     0.29300
C3428       C  0.54769139  0.12133106  0.74154328    -0.21500
C3429       C  0.55920686  0.10690235  0.73337617    -0.09500
C3430       C  0.56813191  0.09713937  0.75635709     0.29300
F3431       F  0.57913261  0.08282341  0.74941612    -0.20100
H3432       H  0.57204315  0.09397515  0.80428120     0.17700
H3433       H  0.54084455  0.12939243  0.72453677     0.17700
F3434       F  0.53362101  0.14029735  0.77729369    -0.20000
C3435       C  0.45701660  0.14351950  0.82943338    -0.21500
C3436       C  0.46706071  0.12759644  0.82219677    -0.09500
C3437       C  0.46650272  0.11995011  0.79211207     0.29300
C3438       C  0.45817170  0.13019192  0.76923110    -0.21500
C3439       C  0.45065209  0.14830968  0.77626347    -0.09500
C3440       C  0.44875048  0.15372780  0.80676935     0.29300
F3441       F  0.44076686  0.17047181  0.81455047    -0.20100
H3442       H  0.45747777  0.14968628  0.85253797     0.17700
H3443       H  0.45985690  0.12579640  0.74590977     0.17700
F3444       F  0.47644801  0.10480668  0.78455177    -0.20000
C3445       C  0.51990623  0.20662455  0.92105947    -0.21500
C3446       C  0.50523472  0.18022729  0.92775880    -0.09500
C3447       C  0.48182550  0.17104277  0.94356836     0.29300
C3448       C  0.47229907  0.18736750  0.95005854    -0.21500
C3449       C  0.48609569  0.21327150  0.94174346    -0.09500
C3450       C  0.51044701  0.22316777  0.92822148     0.29300
F3451       F  0.52425566  0.24834486  0.92036774    -0.20100
H3452       H  0.53786266  0.21412291  0.90874559     0.17700
H3453       H  0.45377438  0.17963733  0.96118829     0.17700
F3454       F  0.46749638  0.14591819  0.95162218    -0.20000
C3455       C  0.50347495  0.34426882  0.89306575    -0.21500
C3456       C  0.51164961  0.33415731  0.91614299    -0.09500
C3457       C  0.53692779  0.34882164  0.92714097     0.29300
C3458       C  0.55266632  0.37434907  0.91727725    -0.21500
C3459       C  0.54315070  0.38523270  0.89654736    -0.09500
C3460       C  0.51890536  0.36945739  0.88338778     0.29300
F3461       F  0.50933782  0.37886879  0.86240705    -0.20100
H3462       H  0.48418562  0.33319103  0.88404546     0.17700
H3463       H  0.57135765  0.38610510  0.92749341     0.17700
F3464       F  0.54540095  0.33947224  0.94941756    -0.20000
C3465       C  0.40649892  0.22199979  0.84483840    -0.21500
C3466       C  0.42645887  0.24397774  0.85882428    -0.09500
C3467       C  0.44800043  0.26093213  0.84139480     0.29300
C3468       C  0.45001635  0.25539899  0.81123820    -0.21500
C3469       C  0.43053351  0.23311084  0.79738767    -0.09500
C3470       C  0.40829814  0.21676303  0.81422287     0.29300
F3471       F  0.38900231  0.19508456  0.80165082    -0.20100
H3472       H  0.38969093  0.20869489  0.85773680     0.17700
H3473       H  0.46728488  0.26838820  0.79880129     0.17700
F3474       F  0.46797173  0.28213594  0.85395346    -0.20000
C3475       C  0.44073995  0.20266015  0.55836308    -0.21500
C3476       C  0.43573666  0.22170473  0.54776989    -0.09500
C3477       C  0.42501679  0.23205984  0.56765392     0.29300
C3478       C  0.42173326  0.22540611  0.59819308    -0.21500
C3479       C  0.42808089  0.20747426  0.60935062    -0.09500
C3480       C  0.43673732  0.19538871  0.58893878     0.29300
F3481       F  0.44286292  0.17779413  0.59885647    -0.20100
H3482       H  0.44882968  0.19431351  0.54333289     0.17700
H3483       H  0.41439194  0.23446595  0.61323923     0.17700
F3484       F  0.41759945  0.24860360  0.55742289    -0.20000
C3485       C  0.16320891  0.03560622  0.96061655    -0.21500
C3486       C  0.16193531  0.05318593  0.98041504    -0.09500
C3487       C  0.14791374  0.04436034  0.50235683     0.29300
C3488       C  0.13906619  0.01889991  0.51158341    -0.21500
C3489       C  0.14362507  0.00166338  0.99835969    -0.09500
C3490       C  0.15392422  0.01005694  0.96923807     0.29300
F3491       F  0.15628872  0.99402195  0.94958814    -0.20100
H3492       H  0.17258538  0.04204718  0.93885495     0.17700
H3493       H  0.12864660  0.01241306  0.53272203     0.17700
F3494       F  0.14350613  0.06011816  0.52021288    -0.20000
C3495       C  0.31384991  0.21915849  0.95117862    -0.21500
C3496       C  0.30170729  0.19768909  0.97039645    -0.09500
C3497       C  0.31711186  0.19172669  0.98874871     0.29300
C3498       C  0.34379847  0.20557985  0.98625898    -0.21500
C3499       C  0.35607966  0.22585106  0.96553386    -0.09500
C3500       C  0.34086549  0.23319765  0.94870434     0.29300
F3501       F  0.35190042  0.25312268  0.92895674    -0.20100
H3502       H  0.30244559  0.22437867  0.93715788     0.17700
H3503       H  0.35485889  0.19981807  0.00013442     0.17700
F3504       F  0.30638463  0.17210602  0.00896210    -0.20000
C3505       C  0.12163944  0.17550109  0.48667255    -0.21500
C3506       C  0.11840151  0.17842796  0.51748353    -0.09500
C3507       C  0.13064464  0.17090675  0.53881240     0.29300
C3508       C  0.14696586  0.16184642  0.52920904    -0.21500
C3509       C  0.15072653  0.15954774  0.49827243    -0.09500
C3510       C  0.13734568  0.16588552  0.47707686     0.29300
F3511       F  0.13418654  0.15735550  0.95060115    -0.20100
H3512       H  0.11263857  0.18153477  0.46992524     0.17700
H3513       H  0.15721357  0.15729246  0.54589663     0.17700
F3514       F  0.12839099  0.17416305  0.56876537    -0.20000
C3515       C  0.22091455  0.14920926  0.58471097    -0.21500
C3516       C  0.23046095  0.13768198  0.56489752    -0.09500
C3517       C  0.23930389  0.12181050  0.57679319     0.29300
C3518       C  0.23789608  0.11704616  0.60787500    -0.21500
C3519       C  0.22715933  0.12755198  0.62738990    -0.09500
C3520       C  0.21882595  0.14381861  0.61567156     0.29300
F3521       F  0.20789958  0.15377401  0.63406367    -0.20100
H3522       H  0.21387473  0.16136604  0.57600953     0.17700
H3523       H  0.24397132  0.10409147  0.61653640     0.17700
F3524       F  0.24897103  0.11064766  0.55832979    -0.20000
C3525       C  0.24306330  0.12852642  0.82796806    -0.21500
C3526       C  0.22784982  0.10401923  0.81534355    -0.09500
C3527       C  0.21266102  0.08312031  0.83439761     0.29300
C3528       C  0.21145274  0.08700057  0.86533942    -0.21500
C3529       C  0.22616686  0.11159077  0.87792061    -0.09500
C3530       C  0.24260698  0.13224806  0.85916514     0.29300
F3531       F  0.25681240  0.15627531  0.87069290    -0.20100
H3532       H  0.25501018  0.14481700  0.81358510     0.17700
H3533       H  0.19848268  0.07090859  0.87942766     0.17700
F3534       F  0.19783525  0.05924300  0.82282266    -0.20000
C3535       C  0.46317976  0.65558212  0.56262612    -0.21500
C3536       C  0.47837494  0.67542958  0.58291240    -0.09500
C3537       C  0.47656620  0.66972813  0.61399814     0.29300
C3538       C  0.46154742  0.64431261  0.62408825    -0.21500
C3539       C  0.44855994  0.62427566  0.60332665    -0.09500
C3540       C  0.44863307  0.63019831  0.57264951     0.29300
F3541       F  0.43568376  0.61122328  0.55215790    -0.20100
H3542       H  0.46402632  0.65936302  0.53862405     0.17700
H3543       H  0.46167250  0.64007310  0.64782973     0.17700
F3544       F  0.49036723  0.68844357  0.63444334    -0.20000
C3545       C  0.32268718  0.53510001  0.59976322    -0.21500
C3546       C  0.33890288  0.52820624  0.58445659    -0.09500
C3547       C  0.33036668  0.51401133  0.55765259     0.29300
C3548       C  0.30530380  0.50484690  0.54784305    -0.21500
C3549       C  0.28816561  0.50948691  0.56458915    -0.09500
C3550       C  0.29729971  0.52573992  0.58988718     0.29300
F3551       F  0.28112796  0.53043539  0.60660405    -0.20100
H3552       H  0.32891559  0.54583350  0.62066192     0.17700
H3553       H  0.29875392  0.49268328  0.52800784     0.17700
F3554       F  0.34575778  0.50747557  0.54206952    -0.20000
C3555       C  0.41547289  0.52641155  0.49997987    -0.21500
C3556       C  0.43425331  0.54057443  0.52194651    -0.09500
C3557       C  0.45777258  0.56173218  0.51253795     0.29300
C3558       C  0.45956717  0.57112292  0.98287749    -0.21500
C3559       C  0.44205867  0.55607459  0.96038050    -0.09500
C3560       C  0.42017003  0.53274951  0.96866674     0.29300
F3561       F  0.40269818  0.51782382  0.94757559    -0.20100
H3562       H  0.39724585  0.50998406  0.50654949     0.17700
H3563       H  0.47656842  0.58912261  0.97710490     0.17700
F3564       F  0.47652742  0.57611808  0.53269616    -0.20000
C3565       C  0.48372716  0.59576778  0.75017458    -0.21500
C3566       C  0.47375516  0.57549887  0.77134361    -0.09500
C3567       C  0.45589175  0.55053925  0.76137081     0.29300
C3568       C  0.44689782  0.54650377  0.73167651    -0.21500
C3569       C  0.45590786  0.56698621  0.71111613    -0.09500
C3570       C  0.47505240  0.59154942  0.72026094     0.29300
F3571       F  0.48399591  0.61177207  0.70095468    -0.20100
H3572       H  0.49753710  0.61517239  0.75705042     0.17700
H3573       H  0.43235088  0.52735072  0.72485270     0.17700
F3574       F  0.44601737  0.53019692  0.78057203    -0.20000
C3575       C  0.62148139  0.45643186  0.68430629    -0.21500
C3576       C  0.61415140  0.45383458  0.65390580    -0.09500
C3577       C  0.63322615  0.46585908  0.63152067     0.29300
C3578       C  0.65893968  0.48217008  0.63980182    -0.21500
C3579       C  0.66594223  0.48582375  0.67033729    -0.09500
C3580       C  0.64721968  0.47204720  0.69247587     0.29300
F3581       F  0.65348155  0.47549349  0.72219796    -0.20100
H3582       H  0.60705280  0.44737029  0.70184545     0.17700
H3583       H  0.67309551  0.49305091  0.62255059     0.17700
F3584       F  0.62666515  0.46388990  0.60194616    -0.20000
C3585       C  0.53229624  0.42052106  0.78437824    -0.21500
C3586       C  0.53729888  0.44362196  0.79808961    -0.09500
C3587       C  0.53471772  0.46187495  0.78097293     0.29300
C3588       C  0.52892434  0.45766057  0.75007544    -0.21500
C3589       C  0.52493930  0.43491560  0.73615462    -0.09500
C3590       C  0.52598834  0.41605007  0.75388767     0.29300
F3591       F  0.52263176  0.39394489  0.74138003    -0.20100
H3592       H  0.53415860  0.40617106  0.79713662     0.17700
H3593       H  0.52802975  0.47235374  0.73690010     0.17700
F3594       F  0.53943360  0.48440289  0.79356507    -0.20000
C3595       C  0.54099114  0.45045367  0.99587313    -0.21500
C3596       C  0.56489900  0.46972431  0.98489504    -0.09500
C3597       C  0.58443628  0.48503882  0.50636371     0.29300
C3598       C  0.58008670  0.47800295  0.53707748    -0.21500
C3599       C  0.55637355  0.45727523  0.54655470    -0.09500
C3600       C  0.53653460  0.44495545  0.52530802     0.29300
F3601       F  0.51297849  0.42565790  0.53383085    -0.20100
H3602       H  0.52482457  0.44036292  0.98074132     0.17700
H3603       H  0.59563206  0.48774517  0.55307306     0.17700
F3604       F  0.60899566  0.50088929  0.99553616    -0.20000
C3605       C  0.46445398  0.32989196  0.57821047    -0.21500
C3606       C  0.46755996  0.35439438  0.57463585    -0.09500
C3607       C  0.46023236  0.36077762  0.54732446     0.29300
C3608       C  0.45234283  0.34345865  0.52294316    -0.21500
C3609       C  0.45231192  0.32015083  0.52580386    -0.09500
C3610       C  0.45776569  0.31330803  0.55388988     0.29300
F3611       F  0.45982028  0.29201223  0.55695987    -0.20100
H3612       H  0.47035699  0.32480806  0.59896936     0.17700
H3613       H  0.44874657  0.34926831  0.50121692     0.17700
F3614       F  0.46338404  0.38454006  0.54319159    -0.20000
C3615       C  0.48302010  0.50353862  0.62624381    -0.21500
C3616       C  0.45607373  0.49074106  0.62524324    -0.09500
C3617       C  0.44213661  0.46374438  0.62722014     0.29300
C3618       C  0.45510822  0.44995329  0.63071267    -0.21500
C3619       C  0.48213573  0.46281564  0.63133883    -0.09500
C3620       C  0.49597068  0.48981280  0.62887865     0.29300
F3621       F  0.52207782  0.50310887  0.62972300    -0.20100
H3622       H  0.49416168  0.52429400  0.62450592     0.17700
H3623       H  0.44405083  0.42921101  0.63258571     0.17700
F3624       F  0.41603620  0.45077104  0.62643263    -0.20000
C3625       C  0.49560214  0.33193715  0.70015802    -0.21500
C3626       C  0.51333139  0.34154849  0.67630458    -0.09500
C3627       C  0.52314104  0.32631139  0.66471433     0.29300
C3628       C  0.51331488  0.30091336  0.67507113    -0.21500
C3629       C  0.49373849  0.29063892  0.69705309    -0.09500
C3630       C  0.48600175  0.30692633  0.71056202     0.29300
F3631       F  0.46799984  0.29822177  0.73286702    -0.20100
H3632       H  0.48806679  0.34343241  0.70974686     0.17700
H3633       H  0.51963478  0.28879307  0.66443344     0.17700
F3634       F  0.54036514  0.33505403  0.64162771    -0.20000
C3635       C  0.22280960  0.52419203  0.82699860    -0.21500
C3636       C  0.21457484  0.50477468  0.80504525    -0.09500
C3637       C  0.19082238  0.49657990  0.79061148     0.29300
C3638       C  0.17457557  0.50547147  0.80007058    -0.21500
C3639       C  0.18151129  0.52285055  0.82399141    -0.09500
C3640       C  0.20635057  0.53327194  0.83645487     0.29300
F3641       F  0.21365403  0.55018326  0.85970489    -0.20100
H3642       H  0.24095118  0.53078981  0.83844796     0.17700
H3643       H  0.15569378  0.49741208  0.78994567     0.17700
F3644       F  0.18233724  0.47840633  0.76868614    -0.20000
C3645       C  0.23020797  0.46306304  0.90580277    -0.21500
C3646       C  0.23483843  0.44362476  0.89580740    -0.09500
C3647       C  0.23693141  0.42744514  0.91715542     0.29300
C3648       C  0.23356558  0.43032346  0.94799361    -0.21500
C3649       C  0.22900082  0.44989959  0.95784339    -0.09500
C3650       C  0.22766980  0.46645059  0.93640757     0.29300
F3651       F  0.22318337  0.48556582  0.94490136    -0.20100
H3652       H  0.22878976  0.47592562  0.88981416     0.17700
H3653       H  0.23481130  0.41750091  0.96416938     0.17700
F3654       F  0.24153768  0.40852920  0.90820591    -0.20000
C3655       C  0.19444502  0.45064799  0.66507709    -0.21500
C3656       C  0.20144218  0.43641756  0.64626123    -0.09500
C3657       C  0.21189383  0.42225126  0.65894495     0.29300
C3658       C  0.21593006  0.42299126  0.69014024    -0.21500
C3659       C  0.21033533  0.43850062  0.70866648    -0.09500
C3660       C  0.19933336  0.45213722  0.69596102     0.29300
F3661       F  0.19438374  0.46780934  0.71322629    -0.20100
H3662       H  0.18653756  0.46179829  0.65557294     0.17700
H3663       H  0.22493013  0.41281792  0.69953717     0.17700
F3664       F  0.21861616  0.40817515  0.64112709    -0.20000
C3665       C  0.33883274  0.46737500  0.73535182    -0.21500
C3666       C  0.31321231  0.45979905  0.72820359    -0.09500
C3667       C  0.30609930  0.45790869  0.69766288     0.29300
C3668       C  0.32483349  0.46646293  0.67507473    -0.21500
C3669       C  0.35082068  0.47694031  0.68253577    -0.09500
C3670       C  0.35764349  0.47612153  0.71261079     0.29300
F3671       F  0.38274819  0.48648023  0.72034175    -0.20100
H3672       H  0.34476004  0.46903729  0.75869868     0.17700
H3673       H  0.31935001  0.46727751  0.65199649     0.17700
F3674       F  0.28139825  0.44996793  0.68981593    -0.20000
C3675       C  0.36586130  0.54018008  0.86962923    -0.21500
C3676       C  0.38566980  0.55143610  0.84797651    -0.09500
C3677       C  0.37931899  0.54656455  0.81724691     0.29300
C3678       C  0.35381572  0.53037614  0.80843436    -0.21500
C3679       C  0.33414816  0.51794492  0.83001853    -0.09500
C3680       C  0.34033213  0.52321454  0.86079871     0.29300
F3681       F  0.32183512  0.51168169  0.88227261    -0.20100
H3682       H  0.37038357  0.54337704  0.89344518     0.17700
H3683       H  0.34965158  0.52644941  0.78461361     0.17700
F3684       F  0.39794872  0.55690709  0.79571774    -0.20000
C3685       C  0.02634369  0.16925492  0.79012028    -0.21500
C3686       C  0.04580361  0.17423431  0.76902200    -0.09500
C3687       C  0.03913410  0.16803121  0.73856123     0.29300
C3688       C  0.01359835  0.15793916  0.72924445    -0.21500
C3689       C  0.99432397  0.15460141  0.74993032    -0.09500
C3690       C  0.00086413  0.15984290  0.78067815     0.29300
F3691       F  0.98283998  0.15666240  0.80145292    -0.20100
H3692       H  0.03116312  0.17415121  0.81365231     0.17700
H3693       H  0.00922458  0.15425748  0.70544209     0.17700
F3694       F  0.05751794  0.17258032  0.71763940    -0.20000
C3695       C  0.19377027  0.35006159  0.81915425    -0.21500
C3696       C  0.21603588  0.36469306  0.80159388    -0.09500
C3697       C  0.22391496  0.35166978  0.78171435     0.29300
C3698       C  0.20909125  0.32475005  0.77870806    -0.21500
C3699       C  0.18619574  0.31027653  0.79549024    -0.09500
C3700       C  0.17909761  0.32335994  0.81630200     0.29300
F3701       F  0.15766404  0.31051534  0.83366747    -0.20100
H3702       H  0.18732989  0.35941298  0.83499653     0.17700
H3703       H  0.21517262  0.31532041  0.76254661     0.17700
F3704       F  0.24514853  0.36495570  0.76417339    -0.20000
C3705       C  0.16533460  0.14385357  0.71019449    -0.21500
C3706       C  0.16008360  0.12202101  0.72715711    -0.09500
C3707       C  0.14349629  0.11526187  0.75219822     0.29300
C3708       C  0.13423399  0.13151944  0.76152893    -0.21500
C3709       C  0.14152993  0.15459421  0.74599931    -0.09500
C3710       C  0.15619659  0.16000019  0.71946238     0.29300
F3711       F  0.16314615  0.18186562  0.70362476    -0.20100
H3712       H  0.17790885  0.14927826  0.69065892     0.17700
H3713       H  0.12327546  0.12723893  0.78230933     0.17700
F3714       F  0.13846925  0.09455247  0.76933380    -0.20000
C3715       C  0.19003516  0.22124501  0.87833478    -0.21500
C3716       C  0.19053233  0.21351376  0.84858462    -0.09500
C3717       C  0.20084338  0.19758112  0.84260660     0.29300
C3718       C  0.20835340  0.18760929  0.86635065    -0.21500
C3719       C  0.20552866  0.19325114  0.89643003    -0.09500
C3720       C  0.19761380  0.21129196  0.90223686     0.29300
F3721       F  0.19438347  0.21702399  0.93098215    -0.20100
H3722       H  0.18156280  0.23305386  0.88328910     0.17700
H3723       H  0.21460590  0.17394917  0.86130418     0.17700
F3724       F  0.20117796  0.18959970  0.81400966    -0.20000
C3725       C  0.13821348  0.23740128  0.63583988    -0.21500
C3726       C  0.11296462  0.23150365  0.62916826    -0.09500
C3727       C  0.09689281  0.23042059  0.65312776     0.29300
C3728       C  0.10578719  0.23491218  0.68280691    -0.21500
C3729       C  0.13056500  0.23974443  0.68963135    -0.09500
C3730       C  0.14683118  0.24104566  0.66586997     0.29300
F3731       F  0.17094186  0.24566003  0.67170513    -0.20100
H3732       H  0.15096693  0.23830207  0.61794076     0.17700
H3733       H  0.09275023  0.23335776  0.70072509     0.17700
F3734       F  0.07229991  0.22458415  0.64806756    -0.20000
C3735       C  0.12330193  0.23530296  0.90177299    -0.21500
C3736       C  0.10431059  0.22910986  0.87975748    -0.09500
C3737       C  0.08115083  0.22789370  0.88819301     0.29300
C3738       C  0.07708868  0.23251029  0.91824164    -0.21500
C3739       C  0.09617140  0.23880740  0.94034143    -0.09500
C3740       C  0.11946489  0.24030144  0.93161898     0.29300
F3741       F  0.13815300  0.24542137  0.95214617    -0.20100
H3742       H  0.14122151  0.23616329  0.89583541     0.17700
H3743       H  0.05878540  0.23072137  0.92433497     0.17700
F3744       F  0.06197180  0.22095208  0.86780724    -0.20000
loop_ 
_geom_bond_atom_site_label_1 
_geom_bond_atom_site_label_2 
_geom_bond_distance 
_geom_bond_site_symmetry_2 
_ccdc_geom_bond_type 
O1          Cr19   2.011       .  S
O1            C9   1.269       .  A
O2          Cr19   1.977       .  S
O2            C3   1.257       .  A
C3            O4   1.270       .  A
C3         C1814   1.489       .  S
O4          Cr20   2.036       .  S
O5          Cr20   2.002       .  S
O5            C6   1.267       .  A
C6            O7   1.264       .  A
C6         C1837   1.481       .  S
O7          Cr21   1.990       .  S
O8          Cr21   1.975       .  S
O8            C9   1.261       .  A
C9         C1857   1.480       .  S
O10         Cr19   1.981       .  S
O10          C18   1.259       .  A
O11         Cr19   2.021       .  S
O11          C12   1.267       .  A
C12          O13   1.258       .  A
C12        C1864   1.480       .  S
O13         Cr20   1.974       .  S
O14         Cr20   2.002       .  S
O14          C15   1.266       .  A
C15          O16   1.264       .  A
C15        C1844   1.468       .  S
O16         Cr21   1.993       .  S
O17         Cr21   2.009       .  S
O17          C18   1.262       .  A
C18        C1827   1.489       .  S
Cr19         O22   1.771       .  S
Cr20         O22   1.775       .  S
Cr21         O22   1.775       .  S
O23         Cr41   1.970       .  S
O23          C31   1.265       .  A
O24         Cr41   1.991       .  S
O24          C25   1.261       .  A
C25          O26   1.264       .  A
C25        C1764   1.479       .  S
O26         Cr42   2.006       .  S
O27         Cr42   2.016       .  S
O27          C28   1.267       .  A
C28          O29   1.262       .  A
C28        C1807   1.493       .  S
O29         Cr43   1.988       .  S
O30         Cr43   2.018       .  S
O30          C31   1.271       .  A
C31        C1774   1.470       .  S
O32         Cr41   1.988       .  S
O32          C40   1.258       .  A
O33         Cr41   1.988       .  S
O33          C34   1.265       .  A
C34          O35   1.268       .  A
C34        C1787   1.467       .  S
O35         Cr42   2.012       .  S
O36         Cr42   1.967       .  S
O36          C37   1.259       .  A
C37          O38   1.267       .  A
C37        C1794   1.474       .  S
O38         Cr43   2.012       .  S
O39         Cr43   2.004       .  S
O39          C40   1.261       .  A
C40        C1824   1.485       .  S
Cr41         O44   1.764       .  S
Cr42         O44   1.768       .  S
Cr43         O44   1.774       .  S
O45         Cr63   2.019       .  S
O45          C53   1.269       .  A
O46         Cr63   1.974       .  S
O46          C47   1.254       .  A
C47          O48   1.260       .  A
C47        C1704   1.475       .  S
O48         Cr64   2.014       .  S
O49         Cr64   1.991       .  S
O49          C50   1.267       .  A
C50          O51   1.271       .  A
C50        C1754   1.480       .  S
O51         Cr65   2.006       .  S
O52         Cr65   1.962       .  S
O52          C53   1.259       .  A
C53        C1717   1.486       .  S
O54         Cr63   1.975       .  S
O54          C62   1.258       .  A
O55         Cr63   2.034       .  S
O55          C56   1.273       .  A
C56          O57   1.260       .  A
C56        C1727   1.477       .  S
O57         Cr64   1.960       .  S
O58         Cr64   1.988       .  S
O58          C59   1.261       .  A
C59          O60   1.261       .  A
C59        C1734   1.470       .  S
O60         Cr65   1.998       .  S
O61         Cr65   2.010       .  S
O61          C62   1.264       .  A
C62        C1747   1.487       .  S
Cr63         O66   1.773       .  S
Cr64         O66   1.777       .  S
Cr65         O66   1.771       .  S
O67         Cr85   2.006       .  S
O67          C75   1.267       .  A
O68         Cr85   1.968       .  S
O68          C69   1.255       .  A
C69          O70   1.264       .  A
C69        C1667   1.470       .  S
O70         Cr86   2.019       .  S
O71         Cr86   1.996       .  S
O71          C72   1.266       .  A
C72          O73   1.269       .  A
C72        C1674   1.483       .  S
O73         Cr87   2.003       .  S
O74         Cr87   1.984       .  S
O74          C75   1.261       .  A
C75        C1684   1.484       .  S
O76         Cr85   1.972       .  S
O76          C84   1.260       .  A
O77         Cr85   2.030       .  S
O77          C78   1.269       .  A
C78          O79   1.259       .  A
C78        C1697   1.480       .  S
O79         Cr86   1.973       .  S
O80         Cr86   1.989       .  S
O80          C81   1.262       .  A
C81          O82   1.261       .  A
C81        C1797   1.461       .  S
O82         Cr87   1.989       .  S
O83         Cr87   2.019       .  S
O83          C84   1.267       .  A
C84        C1744   1.484       .  S
Cr85         O88   1.771       .  S
Cr86         O88   1.776       .  S
Cr87         O88   1.774       .  S
O89       Cr1979   1.973   1_554  S
O89          C97   1.266       .  A
O90        Cr107   1.997       .  S
O90          C91   1.262       .  A
C91          O92   1.264       .  A
C91        C1614   1.478       .  S
O92        Cr108   2.005       .  S
O93        Cr108   1.999       .  S
O93          C94   1.262       .  A
C94          O95   1.260       .  A
C94        C3509   1.482       .  S
O95        Cr109   1.988       .  S
O96       Cr1981   2.014   1_554  S
O96          C97   1.271       .  A
C97        C1644   1.478       .  S
O98        Cr107   1.982       .  S
O98         C106   1.256       .  A
O99        Cr107   1.987       .  S
O99         C100   1.263       .  A
C100        O101   1.265       .  A
C100       C1657   1.463       .  S
O101       Cr108   2.004       .  S
O102       Cr108   1.973       .  S
O102        C103   1.262       .  A
C103        O104   1.270       .  A
C103       C1847   1.482       .  S
O104       Cr109   2.023       .  S
O105       Cr109   2.011       .  S
O105        C106   1.262       .  A
C106       C1624   1.490       .  S
Cr107      O1961   1.972       .  S
Cr107       O110   1.769       .  S
Cr108       O110   1.772       .  S
Cr109      O1968   2.021       .  S
Cr109       O110   1.775       .  S
O111       Cr129   2.020       .  S
O111        C119   1.270       .  A
O112       Cr129   1.966       .  S
O112        C113   1.257       .  A
C113        O114   1.267       .  A
C113       C1577   1.485       .  S
O114       Cr130   2.026       .  S
O115       Cr130   1.991       .  S
O115        C116   1.265       .  A
C116        O117   1.268       .  A
C116       C1584   1.479       .  S
O117       Cr131   2.007       .  S
O118       Cr131   1.968       .  S
O118        C119   1.260       .  A
C119       C1594   1.487       .  S
O120       Cr129   1.974       .  S
O120        C128   1.259       .  A
O121       Cr129   2.027       .  S
O121       C1994   1.268       .  A
C122        O123   1.258       .  A
C122       O1993   1.267   1_554  A
C122       C1604   1.473       .  S
O123      Cr2002   1.966   1_554  S
O124       Cr130   1.996       .  S
O124        C125   1.265       .  A
C125        O126   1.263       .  A
C125       C3609   1.468       .  S
O126       Cr131   1.990       .  S
O127       Cr131   2.021       .  S
O127        C128   1.266       .  A
C128       C1627   1.493       .  S
Cr129       O132   1.772       .  S
Cr130      O1995   1.969       .  S
Cr130       O132   1.776       .  S
Cr131       O132   1.775       .  S
O133       Cr151   1.978       .  S
O133        C141   1.255       .  A
O134       Cr151   2.028       .  S
O134        C135   1.275       .  A
C135        O136   1.264       .  A
C135       C1544   1.490       .  S
O136       Cr152   1.968       .  S
O137       Cr152   2.012       .  S
O137        C138   1.266       .  A
C138        O139   1.260       .  A
C138       C1574   1.473       .  S
O139       Cr153   1.989       .  S
O140       Cr153   2.019       .  S
O140        C141   1.264       .  A
C141       C1524   1.481       .  S
O142       Cr151   2.040       .  S
O142        C150   1.273       .  A
O143       Cr151   1.974       .  S
O143        C144   1.255       .  A
C144        O145   1.264       .  A
C144       C1534   1.492       .  S
O145       Cr152   2.021       .  S
O146       Cr152   1.994       .  S
O146        C147   1.266       .  A
C147        O148   1.269       .  A
C147       C1564   1.472       .  S
O148       Cr153   2.013       .  S
O149       Cr153   1.942       .  S
O149        C150   1.255       .  A
C150       C1554   1.492       .  S
Cr151       O154   1.773       .  S
Cr152       O154   1.777       .  S
Cr153       O154   1.773       .  S
O155       Cr173   1.974       .  S
O155        C163   1.254       .  A
O156       Cr173   2.006       .  S
O156        C157   1.267       .  A
C157        O158   1.263       .  A
C157       C1484   1.488       .  S
O158       Cr174   1.986       .  S
O159       Cr174   2.015       .  S
O159        C160   1.270       .  A
C160        O161   1.265       .  A
C160       C1514   1.476       .  S
O161       Cr175   1.981       .  S
O162       Cr175   2.013       .  S
O162        C163   1.261       .  A
C163       C1474   1.467       .  S
O164       Cr173   2.030       .  S
O164        C172   1.271       .  A
O165       Cr173   1.975       .  S
O165        C166   1.260       .  A
C166        O167   1.267       .  A
C166       C1537   1.481       .  S
O167       Cr174   2.016       .  S
O168       Cr174   2.003       .  S
O168        C169   1.263       .  A
C169        O170   1.260       .  A
C169       C1507   1.468       .  S
O170       Cr175   1.986       .  S
O171       Cr175   1.967       .  S
O171        C172   1.260       .  A
C172       C1494   1.480       .  S
Cr173       O176   1.773       .  S
Cr174       O176   1.775       .  S
Cr175       O176   1.776       .  S
O177       Cr195   2.003       .  S
O177        C185   1.266       .  A
O178       Cr195   1.967       .  S
O178        C179   1.264       .  A
C179        O180   1.271       .  A
C179       C1654   1.470       .  S
O180       Cr196   2.013       .  S
O181       Cr196   1.989       .  S
O181        C182   1.260       .  A
C182        O183   1.263       .  A
C182       C1464   1.478       .  S
O183       Cr197   2.003       .  S
O184       Cr197   2.000       .  S
O184        C185   1.264       .  A
C185       C1834   1.482       .  S
O186       Cr195   1.987       .  S
O186        C194   1.262       .  A
O187       Cr195   1.986       .  S
O187        C188   1.259       .  A
C188        O189   1.261       .  A
C188       C1457   1.484       .  S
O189       Cr196   2.005       .  S
O190       Cr196   2.015       .  S
O190        C191   1.269       .  A
C191        O192   1.261       .  A
C191       C1444   1.479       .  S
O192       Cr197   1.975       .  S
O193       Cr197   2.004       .  S
O193        C194   1.263       .  A
C194       C1647   1.463       .  S
Cr195       O198   1.767       .  S
Cr196       O198   1.772       .  S
Cr197       O198   1.771       .  S
O199       Cr217   2.008       .  S
O199        C207   1.267       .  A
O200       Cr217   1.973       .  S
O200        C201   1.265       .  A
C201        O202   1.271       .  A
C201       C1607   1.481       .  S
O202       Cr218   2.017       .  S
O203       Cr218   1.968       .  S
O203        C204   1.256       .  A
C204        O205   1.266       .  A
C204       C1434   1.490       .  S
O205       Cr219   2.019       .  S
O206       Cr219   1.993       .  S
O206        C207   1.263       .  A
C207       C1757   1.483       .  S
O208       Cr217   1.990       .  S
O208        C216   1.262       .  A
O209       Cr217   1.996       .  S
O209        C210   1.261       .  A
C210        O211   1.258       .  A
C210       C1454   1.473       .  S
O211       Cr218   1.988       .  S
O212       Cr218   2.030       .  S
O212        C213   1.271       .  A
C213        O214   1.259       .  A
C213       C1567   1.482       .  S
O214       Cr219   1.962       .  S
O215       Cr219   2.010       .  S
O215        C216   1.267       .  A
C216       C1597   1.472       .  S
Cr217       O220   1.768       .  S
Cr218       O220   1.775       .  S
Cr219       O220   1.773       .  S
O221       Cr239   1.999       .  S
O221        C229   1.263       .  A
O222      Cr2111   1.968       .  S
O222        C223   1.265       .  A
C223        O224   1.269       .  A
C223       C1414   1.481       .  S
O224      Cr2112   2.011       .  S
O225       Cr240   1.988   1_556  S
O225        C226   1.264   1_556  A
C226        O227   1.266       .  A
C226       C3489   1.492   1_564  S
O227       Cr241   2.008       .  S
O228       Cr241   2.009       .  S
O228        C229   1.264       .  A
C229       C1394   1.487       .  S
O230       Cr239   1.985       .  S
O230        C238   1.262       .  A
O231       Cr239   1.980       .  S
O231        C232   1.256       .  A
C232        O233   1.262       .  A
C232       C1404   1.486       .  S
O233       Cr240   2.015       .  S
O234       Cr240   2.013       .  S
O234        C235   1.267       .  A
C235        O236   1.261       .  A
C235       C1447   1.475       .  S
O236       Cr241   1.976       .  S
O237       Cr241   2.015       .  S
O237        C238   1.269       .  A
C238       C1424   1.471       .  S
Cr239      O2094   1.962   1_554  S
Cr239       O242   1.764       .  S
Cr240      O2096   2.028   1_554  S
Cr240       O242   1.777       .  S
Cr241       O242   1.769       .  S
O243       Cr261   2.008       .  S
O243        C251   1.264       .  A
O244       Cr261   1.948       .  S
O244        C245   1.261       .  A
C245        O246   1.274       .  A
C245       C1374   1.482       .  S
O246       Cr262   2.028       .  S
O247       Cr262   1.986       .  S
O247        C248   1.258       .  A
C248        O249   1.262       .  A
C248       C1367   1.489       .  S
O249       Cr263   2.004       .  S
O250       Cr263   2.003       .  S
O250        C251   1.264       .  A
C251       C1354   1.478       .  S
O252       Cr261   1.991       .  S
O252       C2132   1.264   1_554  A
O253       Cr261   1.988       .  S
O253        C254   1.259       .  A
C254        O255   1.259       .  A
C254       C1407   1.492       .  S
O255       Cr262   1.999       .  S
O256       Cr262   2.028       .  S
O256        C257   1.273       .  A
C257        O258   1.261   1_554  A
C257       C3376   1.480   1_554  S
O258       Cr263   1.959   1_556  S
O259      Cr2135   2.002       .  S
O259        C260   1.267       .  A
C260       O2124   1.263       .  A
C260       C1387   1.471       .  S
Cr261       O264   1.767       .  S
Cr262       O264   1.779       .  S
Cr263      O2131   2.012   1_554  S
Cr263       O264   1.766       .  S
O265       Cr283   2.022       .  S
O265        C273   1.271       .  A
O266       Cr283   1.975       .  S
O266        C267   1.255       .  A
C267        O268   1.262       .  A
C267       C1517   1.472       .  S
O268       Cr284   2.013       .  S
O269       Cr284   1.992       .  S
O269        C270   1.264       .  A
C270        O271   1.266       .  A
C270       C1334   1.483       .  S
O271       Cr285   1.997       .  S
O272       Cr285   1.957       .  S
O272        C273   1.261       .  A
C273       C1384   1.475       .  S
O274       Cr283   1.980       .  S
O274        C282   1.258       .  A
O275       Cr283   2.023       .  S
O275        C276   1.270       .  A
C276        O277   1.258       .  A
C276       C1377   1.482       .  S
O277       Cr284   1.946       .  S
O278       Cr284   2.004       .  S
O278        C279   1.266       .  A
C279        O280   1.262       .  A
C279       C1344   1.464       .  S
O280       Cr285   1.988       .  S
O281       Cr285   2.004       .  S
O281        C282   1.261       .  A
C282       C1324   1.489       .  S
Cr283       O286   1.774       .  S
Cr284       O286   1.776       .  S
Cr285       O286   1.769       .  S
O287       Cr305   2.015       .  S
O287        C295   1.270       .  A
O288       Cr305   1.975       .  S
O288        C289   1.254       .  A
C289        O290   1.261       .  A
C289       C1467   1.483       .  S
O290       Cr306   2.017       .  S
O291       Cr306   1.980       .  S
O291        C292   1.264       .  A
C292        O293   1.269       .  A
C292       C1314   1.468       .  S
O293       Cr307   2.011       .  S
O294       Cr307   1.966       .  S
O294        C295   1.260       .  A
C295       C1427   1.484       .  S
O296       Cr305   1.969       .  S
O296        C304   1.256       .  A
O297       Cr305   2.034       .  S
O297        C298   1.273       .  A
C298        O299   1.256       .  A
C298       C1417   1.475       .  S
O299       Cr306   1.941       .  S
O300       Cr306   1.992       .  S
O300        C301   1.264       .  A
C301        O302   1.263       .  A
C301       C1304   1.474       .  S
O302       Cr307   2.001       .  S
O303       Cr307   2.014       .  S
O303        C304   1.264       .  A
C304       C1327   1.478       .  S
Cr305       O308   1.776       .  S
Cr306       O308   1.777       .  S
Cr307       O308   1.774       .  S
O309       Cr327   1.950       .  S
O309        C317   1.262       .  A
O310       Cr327   2.004       .  S
O310        C311   1.263       .  A
C311        O312   1.263       .  A
C311       C1247   1.483       .  S
O312       Cr328   2.002       .  S
O313       Cr328   2.002       .  S
O313        C314   1.264       .  A
C314        O315   1.261       .  A
C314       C1294   1.492       .  S
O315       Cr329   1.989       .  S
O316       Cr329   2.026       .  S
O316        C317   1.274       .  A
C317       C1267   1.468       .  S
O318       Cr327   1.986       .  S
O318        C326   1.258       .  A
O319       Cr327   1.981       .  S
O319        C320   1.262       .  A
C320        O321   1.267       .  A
C320       C1274   1.464       .  S
O321       Cr328   1.997       .  S
O322       Cr328   1.963       .  S
O322        C323   1.259       .  A
C323        O324   1.271       .  A
C323       C1254   1.480       .  S
O324       Cr329   2.027       .  S
O325       Cr329   2.000       .  S
O325        C326   1.260       .  A
C326       C1284   1.485       .  S
Cr327       O330   1.770       .  S
Cr328       O330   1.763       .  S
Cr329       O330   1.777       .  S
O331       Cr349   1.965       .  S
O331        C339   1.265       .  A
O332       Cr349   1.989       .  S
O332        C333   1.259       .  A
C333        O334   1.265       .  A
C333       C1214   1.483       .  S
O334       Cr350   2.013       .  S
O335       Cr350   2.010       .  S
O335        C336   1.265       .  A
C336        O337   1.260       .  A
C336       C1357   1.491       .  S
O337       Cr351   1.979       .  S
O338       Cr351   2.026       .  S
O338        C339   1.273       .  A
C339       C1224   1.477       .  S
O340       Cr349   1.980       .  S
O340        C348   1.256       .  A
O341       Cr349   1.995       .  S
O341        C342   1.267       .  A
C342        O343   1.270       .  A
C342       C1237   1.475       .  S
O343       Cr350   2.011       .  S
O344       Cr350   1.964       .  S
O344        C345   1.260       .  A
C345        O346   1.268       .  A
C345       C1347   1.471       .  S
O346       Cr351   2.015       .  S
O347       Cr351   2.004       .  S
O347        C348   1.259       .  A
C348       C1287   1.486       .  S
Cr349       O352   1.762       .  S
Cr350       O352   1.766       .  S
Cr351       O352   1.777       .  S
O353       Cr371   2.012       .  S
O353        C361   1.268       .  A
O354       Cr371   1.964       .  S
O354        C355   1.254       .  A
C355        O356   1.266       .  A
C355       C1164   1.476       .  S
O356       Cr372   2.027       .  S
O357       Cr372   1.990       .  S
O357        C358   1.266       .  A
C358        O359   1.269       .  A
C358       C1184   1.478       .  S
O359       Cr373   2.006       .  S
O360       Cr373   1.972       .  S
O360        C361   1.259       .  A
C361       C1194   1.483       .  S
O362       Cr371   1.966       .  S
O362        C370   1.258       .  A
O363       Cr371   2.031       .  S
O363       C2236   1.269       .  A
C364        O365   1.258       .  A
C364       O2235   1.271   1_554  A
C364       C1204   1.476       .  S
O365      Cr2244   1.964   1_554  S
O366       Cr372   1.992       .  S
O366        C367   1.263       .  A
C367        O368   1.261       .  A
C367       C3129   1.462       .  S
O368       Cr373   1.989       .  S
O369       Cr373   2.021       .  S
O369        C370   1.267       .  A
C370       C1177   1.482       .  S
Cr371       O374   1.769       .  S
Cr372      O2237   1.970       .  S
Cr372       O374   1.774       .  S
Cr373       O374   1.774       .  S
O375      Cr2265   2.011   1_554  S
O375        C383   1.269       .  A
O376       Cr393   1.971       .  S
O376        C377   1.255       .  A
C377        O378   1.264       .  A
C377       C1134   1.473       .  S
O378       Cr394   2.021       .  S
O379       Cr394   2.000       .  S
O379        C380   1.268       .  A
C380        O381   1.267       .  A
C380       C3269   1.481       .  S
O381       Cr395   1.998       .  S
O382      Cr2267   1.984   1_554  S
O382        C383   1.263       .  A
C383       C1144   1.491       .  S
O384       Cr393   1.969       .  S
O384        C392   1.256       .  A
O385       Cr393   2.026       .  S
O385        C386   1.269       .  A
C386        O387   1.258       .  A
C386       C1154   1.476       .  S
O387       Cr394   1.967       .  S
O388       Cr394   1.991       .  S
O388        C389   1.264       .  A
C389        O390   1.265       .  A
C389       C1307   1.473       .  S
O390       Cr395   2.001       .  S
O391       Cr395   2.017       .  S
O391        C392   1.264       .  A
C392       C1174   1.482       .  S
Cr393      O2247   2.010       .  S
Cr393       O396   1.771       .  S
Cr394       O396   1.773       .  S
Cr395      O2254   1.982       .  S
Cr395       O396   1.778       .  S
O397       Cr415   1.979       .  S
O397        C405   1.254       .  A
O398       Cr415   2.013       .  S
O398        C399   1.269       .  A
C399        O400   1.260       .  A
C399       C1157   1.491       .  S
O400       Cr416   1.977       .  S
O401       Cr416   2.001       .  S
O401        C402   1.269       .  A
C402        O403   1.266       .  A
C402       C1124   1.473       .  S
O403       Cr417   1.988       .  S
O404       Cr417   2.012       .  S
O404        C405   1.261       .  A
C405       C1317   1.471       .  S
O406       Cr415   2.035       .  S
O406        C414   1.272       .  A
O407       Cr415   1.975       .  S
O407        C408   1.259       .  A
C408        O409   1.266       .  A
C408       C1114   1.491       .  S
O409       Cr416   2.017       .  S
O410       Cr416   2.002       .  S
O410        C411   1.263       .  A
C411        O412   1.260       .  A
C411       C1104   1.466       .  S
O412       Cr417   1.982       .  S
O413       Cr417   1.964       .  S
O413        C414   1.260       .  A
C414       C1147   1.480       .  S
Cr415       O418   1.771       .  S
Cr416       O418   1.774       .  S
Cr417       O418   1.775       .  S
O419       Cr437   1.976       .  S
O419        C427   1.254       .  A
O420       Cr437   2.007       .  S
O420        C421   1.268       .  A
C421        O422   1.261       .  A
C421       C1207   1.491       .  S
O422       Cr438   1.983       .  S
O423       Cr438   2.009       .  S
O423        C424   1.269       .  A
C424        O425   1.264       .  A
C424       C1707   1.467       .  S
O425       Cr439   1.984       .  S
O426       Cr439   2.026       .  S
O426        C427   1.264       .  A
C427       C1297   1.477       .  S
O428       Cr437   2.031       .  S
O428        C436   1.271       .  A
O429       Cr437   1.972       .  S
O429        C430   1.259       .  A
C430        O431   1.267       .  A
C430       C1117   1.484       .  S
O431       Cr438   2.018       .  S
O432       Cr438   2.007       .  S
O432        C433   1.264       .  A
C433        O434   1.264       .  A
C433       C1094   1.478       .  S
O434       Cr439   2.001       .  S
O435       Cr439   1.957       .  S
O435        C436   1.258       .  A
C436       C1197   1.475       .  S
Cr437       O440   1.774       .  S
Cr438       O440   1.775       .  S
Cr439       O440   1.775       .  S
O441       Cr459   2.008       .  S
O441        C449   1.265       .  A
O442       Cr459   1.964       .  S
O442        C443   1.265       .  A
C443        O444   1.276       .  A
C443       C1724   1.486       .  S
O444       Cr460   2.035       .  S
O445       Cr460   1.988       .  S
O445        C446   1.260       .  A
C446        O447   1.263       .  A
C446       C1167   1.480       .  S
O447       Cr461   2.000       .  S
O448       Cr461   2.001       .  S
O448        C449   1.263       .  A
C449       C1587   1.481       .  S
O450       Cr459   1.989       .  S
O450        C458   1.263       .  A
O451       Cr459   1.995       .  S
O451        C452   1.259       .  A
C452        O453   1.262       .  A
C452       C1084   1.492       .  S
O453       Cr460   2.008       .  S
O454       Cr460   2.036       .  S
O454        C455   1.273       .  A
C455        O456   1.260       .  A
C455       C1097   1.491       .  S
O456       Cr461   1.967       .  S
O457       Cr461   2.006       .  S
O457        C458   1.266       .  A
C458       C1714   1.468       .  S
Cr459       O462   1.767       .  S
Cr460       O462   1.773       .  S
Cr461       O462   1.769       .  S
O463       Cr481   1.976       .  S
O463        C471   1.257       .  A
O464       Cr481   2.018       .  S
O464        C465   1.271       .  A
C465        O466   1.262       .  A
C465       C1694   1.492       .  S
O466       Cr482   1.978       .  S
O467       Cr482   2.022       .  S
O467        C468   1.270       .  A
C468        O469   1.265       .  A
C468       C1074   1.479       .  S
O469       Cr483   1.989       .  S
O470       Cr483   2.031       .  S
O470        C471   1.268       .  A
C471       C1804   1.482       .  S
O472       Cr481   2.031       .  S
O472        C480   1.269       .  A
O473       Cr481   1.973       .  S
O473        C474   1.257       .  A
C474        O475   1.269       .  A
C474       C1087   1.497       .  S
O475       Cr482   2.033       .  S
O476       Cr482   1.990       .  S
O476        C477   1.262       .  A
C477        O478   1.265       .  A
C477       C1064   1.462       .  S
O478       Cr483   1.997       .  S
O479       Cr483   1.960       .  S
O479        C480   1.256       .  A
C480       C1687   1.479       .  S
Cr481       O484   1.768       .  S
Cr482       O484   1.775       .  S
Cr483       O484   1.772       .  S
O485       Cr503   2.013       .  S
O485        C493   1.266       .  A
O486       Cr503   1.965       .  S
O486        C487   1.264       .  A
C487        O488   1.272       .  A
C487       C1044   1.482       .  S
O488       Cr504   2.021       .  S
O489       Cr504   1.977       .  S
O489        C490   1.258       .  A
C490        O491   1.263       .  A
C490       C1664   1.482       .  S
O491       Cr505   2.004       .  S
O492       Cr505   2.008       .  S
O492        C493   1.264       .  A
C493       C1024   1.489       .  S
O494       Cr503   1.990       .  S
O494       C2374   1.263   1_554  A
O495       Cr503   1.996       .  S
O495        C496   1.261       .  A
C496        O497   1.261       .  A
C496       C1034   1.497       .  S
O497       Cr504   2.004       .  S
O498       Cr504   2.023       .  S
O498        C499   1.271       .  A
C499        O500   1.261   1_554  A
C499       C2939   1.479   1_554  S
O500       Cr505   1.970   1_556  S
O501      Cr2377   2.008       .  S
O501        C502   1.266       .  A
C502       O2366   1.262       .  A
C502       C1054   1.472       .  S
Cr503       O506   1.763       .  S
Cr504       O506   1.776       .  S
Cr505      O2373   2.008   1_554  S
Cr505       O506   1.770       .  S
O507       Cr525   2.005       .  S
O507        C515   1.264       .  A
O508      Cr2397   1.964       .  S
O508        C509   1.264       .  A
C509        O510   1.271       .  A
C509       C1007   1.466       .  S
O510      Cr2398   2.019       .  S
O511       Cr526   1.999   1_556  S
O511        C512   1.262   1_556  A
C512        O513   1.264       .  A
C512       C3009   1.489       .  S
O513       Cr527   2.005       .  S
O514       Cr527   2.002       .  S
O514        C515   1.264       .  A
C515        C994   1.480       .  S
O516       Cr525   1.977       .  S
O516        C524   1.259       .  A
O517       Cr525   1.984       .  S
O517        C518   1.257       .  A
C518        O519   1.262       .  A
C518       C1037   1.487       .  S
O519       Cr526   2.012       .  S
O520       Cr526   2.017       .  S
O520        C521   1.269       .  A
C521        O522   1.262       .  A
C521       C1107   1.484       .  S
O522       Cr527   1.970       .  S
O523       Cr527   2.012       .  S
O523        C524   1.266       .  A
C524       C1014   1.463       .  S
Cr525      O2380   1.964   1_554  S
Cr525       O528   1.772       .  S
Cr526      O2382   2.014   1_554  S
Cr526       O528   1.777       .  S
Cr527       O528   1.772       .  S
O529       Cr547   1.999       .  S
O529        C537   1.261       .  A
O530       Cr547   1.957       .  S
O530        C531   1.266       .  A
C531        O532   1.276       .  A
C531        C964   1.474       .  S
O532       Cr548   2.029       .  S
O533       Cr548   1.994       .  S
O533        C534   1.261       .  A
C534        O535   1.264       .  A
C534       C1817   1.489       .  S
O535       Cr549   2.008       .  S
O536       Cr549   2.014       .  S
O536        C537   1.265       .  A
C537        C944   1.485       .  S
O538       Cr547   1.987       .  S
O538        C546   1.265       .  A
O539       Cr547   1.983       .  S
O539        C540   1.255       .  A
C540        O541   1.259       .  A
C540        C954   1.490       .  S
O541       Cr548   2.005       .  S
O542       Cr548   2.022       .  S
O542        C543   1.271       .  A
C543        O544   1.260       .  A
C543        C984   1.484       .  S
O544       Cr549   1.961       .  S
O545       Cr549   2.013       .  S
O545        C546   1.270       .  A
C546        C974   1.470       .  S
Cr547       O550   1.767       .  S
Cr548       O550   1.777       .  S
Cr549       O550   1.769       .  S
O551       Cr569   1.970       .  S
O551        C559   1.255       .  A
O552       Cr569   2.026       .  S
O552        C553   1.271       .  A
C553        O554   1.260       .  A
C553        C924   1.482       .  S
O554       Cr570   1.953       .  S
O555       Cr570   2.007       .  S
O555        C556   1.268       .  A
C556        O557   1.266       .  A
C556       C1244   1.479       .  S
O557       Cr571   1.992       .  S
O558       Cr571   2.023       .  S
O558        C559   1.265       .  A
C559        C904   1.477       .  S
O560       Cr569   2.028       .  S
O560        C568   1.271       .  A
O561       Cr569   1.972       .  S
O561        C562   1.256       .  A
C562        O563   1.263       .  A
C562        C957   1.488       .  S
O563       Cr570   2.012       .  S
O564       Cr570   1.984       .  S
O564        C565   1.260       .  A
C565        O566   1.266       .  A
C565        C914   1.462       .  S
O566       Cr571   2.000       .  S
O567       Cr571   1.955       .  S
O567        C568   1.258       .  A
C568        C934   1.485       .  S
Cr569       O572   1.772       .  S
Cr570       O572   1.770       .  S
Cr571       O572   1.775       .  S
O573       Cr591   1.966       .  S
O573        C581   1.254       .  A
O574      Cr2463   2.022       .  S
O574        C575   1.271       .  A
C575        O576   1.261       .  A
C575       C1867   1.491       .  S
O576      Cr2464   1.973       .  S
O577       Cr592   1.998       .  S
O577        C578   1.268       .  A
C578        O579   1.266       .  A
C578       C2769   1.472   1_554  S
O579       Cr593   1.989       .  S
O580       Cr593   2.026       .  S
O580        C581   1.265       .  A
C581       C1634   1.474       .  S
O582       Cr591   2.025       .  S
O582        C590   1.270       .  A
O583       Cr591   1.970       .  S
O583        C584   1.258       .  A
C584        O585   1.267       .  A
C584        C887   1.493       .  S
O585       Cr592   2.024       .  S
O586       Cr592   2.001       .  S
O586        C587   1.265       .  A
C587        O588   1.263       .  A
C587        C987   1.469       .  S
O588       Cr593   1.991       .  S
O589       Cr593   1.965       .  S
O589        C590   1.259       .  A
C590       C1854   1.480       .  S
Cr591      O2446   2.014   1_554  S
Cr591       O594   1.768       .  S
Cr592      O2448   1.978   1_554  S
Cr592       O594   1.774       .  S
Cr593       O594   1.774       .  S
O595       Cr613   1.993       .  S
O595        C603   1.264       .  A
O596       Cr613   1.970       .  S
O596        C597   1.265       .  A
C597        O598   1.271       .  A
C597       C1784   1.472       .  S
O598       Cr614   2.012       .  S
O599       Cr614   1.980       .  S
O599        C600   1.259       .  A
C600        O601   1.262       .  A
C600       C1217   1.491       .  S
O601       Cr615   2.004       .  S
O602       Cr615   2.010       .  S
O602        C603   1.265       .  A
C603       C1677   1.485       .  S
O604       Cr613   1.990       .  S
O604       C2484   1.265   1_554  A
O605       Cr613   1.988       .  S
O605        C606   1.258       .  A
C606        O607   1.260       .  A
C606        C884   1.490       .  S
O607       Cr614   2.001       .  S
O608       Cr614   2.014       .  S
O608        C609   1.268       .  A
C609        O610   1.261   1_554  A
C609       C2749   1.476   1_554  S
O610       Cr615   1.973   1_556  S
O611      Cr2487   1.992       .  S
O611        C612   1.263       .  A
C612       O2476   1.265       .  A
C612       C1777   1.476       .  S
Cr613       O616   1.773       .  S
Cr614       O616   1.777       .  S
Cr615      O2483   1.997   1_554  S
Cr615       O616   1.777       .  S
O617       Cr635   1.998       .  S
O617        C625   1.260       .  A
O618       Cr635   1.950       .  S
O618        C619   1.264       .  A
C619        O620   1.274       .  A
C619       C1277   1.464       .  S
O620       Cr636   2.023       .  S
O621       Cr636   1.984       .  S
O621        C622   1.262       .  A
C622        O623   1.263       .  A
C622        C864   1.496       .  S
O623       Cr637   2.005       .  S
O624       Cr637   2.005       .  S
O624        C625   1.261       .  A
C625       C1187   1.482       .  S
O626       Cr635   1.975       .  S
O626        C634   1.265       .  A
O627       Cr635   1.993       .  S
O627        C628   1.257       .  A
C628        O629   1.257       .  A
C628        C854   1.489       .  S
O629       Cr636   2.000       .  S
O630       Cr636   2.013       .  S
O630        C631   1.267       .  A
C631        O632   1.258       .  A
C631        C917   1.473       .  S
O632       Cr637   1.953       .  S
O633       Cr637   2.005       .  S
O633        C634   1.272       .  A
C634       C1264   1.469       .  S
Cr635       O638   1.772       .  S
Cr636       O638   1.777       .  S
Cr637       O638   1.769       .  S
O639       Cr657   1.961       .  S
O639        C647   1.254       .  A
O640       Cr657   2.029       .  S
O640        C641   1.272       .  A
C641        O642   1.262       .  A
C641       C1234   1.487       .  S
O642       Cr658   1.963       .  S
O643       Cr658   2.015       .  S
O643        C644   1.271       .  A
C644        O645   1.261       .  A
C644       C1767   1.474       .  S
O645       Cr659   1.976       .  S
O646       Cr659   2.011       .  S
O646        C647   1.262       .  A
C647       C1337   1.469       .  S
O648       Cr657   2.024       .  S
O648        C656   1.271       .  A
O649       Cr657   1.966       .  S
O649        C650   1.254       .  A
C650        O651   1.265       .  A
C650        C857   1.493       .  S
O651       Cr658   2.027       .  S
O652       Cr658   2.001       .  S
O652        C653   1.265       .  A
C653        O654   1.264       .  A
C653        C874   1.468       .  S
O654       Cr659   1.997       .  S
O655       Cr659   1.953       .  S
O655        C656   1.257       .  A
C656       C1227   1.485       .  S
Cr657       O660   1.770       .  S
Cr658       O660   1.772       .  S
Cr659       O660   1.776       .  S
O661       Cr679   1.973       .  S
O661        C669   1.265       .  A
O662       Cr679   2.004       .  S
O662        C663   1.265       .  A
C663        O664   1.261       .  A
C663       C1127   1.476       .  S
O664       Cr680   1.992       .  S
O665       Cr680   2.015       .  S
O665        C666   1.265       .  A
C666        O667   1.260       .  A
C666        C947   1.496       .  S
O667       Cr681   1.982       .  S
O668       Cr681   2.008       .  S
O668        C669   1.270       .  A
C669       C1017   1.472       .  S
O670       Cr679   1.992       .  S
O670        C678   1.261       .  A
O671       Cr679   1.988       .  S
O671        C672   1.264       .  A
C672        O673   1.267       .  A
C672       C1004   1.481       .  S
O673       Cr680   2.002       .  S
O674       Cr680   1.963       .  S
O674        C675   1.258       .  A
C675        O676   1.267       .  A
C675        C834   1.469       .  S
O676       Cr681   2.011       .  S
O677       Cr681   2.002       .  S
O677        C678   1.261       .  A
C678        C847   1.492       .  S
Cr679       O682   1.770       .  S
Cr680       O682   1.769       .  S
Cr681       O682   1.772       .  S
O683       Cr701   2.016       .  S
O683        C691   1.268       .  A
O684       Cr701   1.974       .  S
O684        C685   1.256       .  A
C685        O686   1.267       .  A
C685       C1077   1.486       .  S
O686       Cr702   2.031       .  S
O687       Cr702   1.977       .  S
O687        C688   1.263       .  A
C688        O689   1.270       .  A
C688       C1477   1.470       .  S
O689       Cr703   2.012       .  S
O690       Cr703   1.967       .  S
O690        C691   1.262       .  A
C691       C1057   1.483       .  S
O692       Cr701   1.965       .  S
O692        C700   1.256       .  A
O693       Cr701   2.030       .  S
O693        C694   1.269       .  A
C694        O695   1.256       .  A
C694       C1047   1.476       .  S
O695       Cr702   1.954       .  S
O696       Cr702   2.000       .  S
O696        C697   1.265       .  A
C697        O698   1.264       .  A
C697        C824   1.472       .  S
O698       Cr703   1.996       .  S
O699       Cr703   2.031       .  S
O699        C700   1.268       .  A
C700        C844   1.494       .  S
Cr701       O704   1.768       .  S
Cr702       O704   1.771       .  S
Cr703       O704   1.775       .  S
O705       Cr723   1.971       .  S
O705        C713   1.266       .  A
O706       Cr723   2.000       .  S
O706        C707   1.263       .  A
C707        O708   1.263       .  A
C707       C1437   1.478       .  S
O708       Cr724   2.003       .  S
O709       Cr724   2.006       .  S
O709        C710   1.265       .  A
C710        O711   1.260       .  A
C710        C907   1.481       .  S
O711       Cr725   1.985       .  S
O712       Cr725   2.024       .  S
O712        C713   1.271       .  A
C713       C1557   1.482       .  S
O714       Cr723   1.989       .  S
O714        C722   1.259       .  A
O715       Cr723   1.993       .  S
O715        C716   1.265       .  A
C716        O717   1.268       .  A
C716       C1547   1.475       .  S
O717       Cr724   2.008       .  S
O718       Cr724   1.972       .  S
O718        C719   1.260       .  A
C719        O720   1.268       .  A
C719        C807   1.474       .  S
O720       Cr725   2.012       .  S
O721       Cr725   2.000       .  S
O721        C722   1.260       .  A
C722        C814   1.485       .  S
Cr723       O726   1.761       .  S
Cr724       O726   1.766       .  S
Cr725       O726   1.773       .  S
O727       Cr745   2.013       .  S
O727        C735   1.270       .  A
O728       Cr745   1.971       .  S
O728        C729   1.256       .  A
C729        O730   1.267       .  A
C729       C1364   1.477       .  S
O730       Cr746   2.027       .  S
O731       Cr746   1.999       .  S
O731        C732   1.268       .  A
C732        O733   1.268       .  A
C732       C1027   1.484       .  S
O733       Cr747   2.005       .  S
O734       Cr747   1.973       .  S
O734        C735   1.261       .  A
C735       C1497   1.485       .  S
O736       Cr745   1.970       .  S
O736        C744   1.258       .  A
O737       Cr745   2.027       .  S
O737        C738   1.269       .  A
C738        O739   1.259       .  A
C738       C1487   1.484       .  S
O739       Cr746   1.970       .  S
O740       Cr746   1.990       .  S
O740        C741   1.264       .  A
C741        O742   1.264       .  A
C741        C827   1.471       .  S
O742       Cr747   2.000       .  S
O743       Cr747   2.020       .  S
O743        C744   1.264       .  A
C744        C817   1.489       .  S
Cr745       O748   1.770       .  S
Cr746       O748   1.772       .  S
Cr747       O748   1.775       .  S
O749      Cr2639   1.971   1_554  S
O749        C757   1.264       .  A
O750       Cr767   1.999       .  S
O750        C751   1.265       .  A
C751        O752   1.266       .  A
C751        C894   1.487       .  S
O752       Cr768   2.005       .  S
O753       Cr768   2.006       .  S
O753        C754   1.262       .  A
C754        O755   1.261       .  A
C754       C2869   1.491       .  S
O755       Cr769   1.982       .  S
O756      Cr2641   2.015   1_554  S
O756        C757   1.272       .  A
C757        C977   1.470       .  S
O758       Cr767   1.993       .  S
O758        C766   1.261       .  A
O759       Cr767   1.993       .  S
O759        C760   1.264       .  A
C760        O761   1.262       .  A
C760        C967   1.472       .  S
O761       Cr768   1.992       .  S
O762       Cr768   1.973       .  S
O762        C763   1.260       .  A
C763        O764   1.266       .  A
C763        C837   1.469       .  S
O764       Cr769   2.007       .  S
O765       Cr769   2.001       .  S
O765        C766   1.260       .  A
C766        C794   1.484       .  S
Cr767      O2621   1.977       .  S
Cr767       O770   1.773       .  S
Cr768       O770   1.776       .  S
Cr769      O2628   2.005       .  S
Cr769       O770   1.780       .  S
O771       Cr789   1.957       .  S
O771        C779   1.264       .  A
O772       Cr789   2.001       .  S
O772        C773   1.262       .  A
C773        O774   1.266       .  A
C773        C867   1.489       .  S
O774       Cr790   2.013       .  S
O775       Cr790   2.008       .  S
O775        C776   1.264       .  A
C776        O777   1.261       .  A
C776       C1527   1.488       .  S
O777       Cr791   1.987       .  S
O778       Cr791   2.033       .  S
O778        C779   1.275       .  A
C779        C937   1.488       .  S
O780       Cr789   1.984       .  S
O780        C788   1.257       .  A
O781       Cr789   1.986       .  S
O781       C2654   1.263       .  A
C782        O783   1.267       .  A
C782       O2653   1.261   1_554  A
C782        C927   1.471       .  S
O783      Cr2662   2.008   1_554  S
O784      Cr2662   1.966   1_554  S
O784       C2657   1.261   1_554  A
C785        O786   1.272       .  A
C785       O2656   1.261       .  A
C785       C2676   1.482       .  S
O786       Cr791   2.026       .  S
O787       Cr791   2.017       .  S
O787        C788   1.263       .  A
C788        C797   1.497       .  S
Cr789       O792   1.766       .  S
Cr790      O2655   2.004       .  S
Cr790      O2656   1.973       .  S
Cr790       O792   1.770       .  S
Cr791       O792   1.776       .  S
C793        C794   1.399       .  A
C793        C798   1.393       .  A
C793        H800   1.084       .  S
C794        C795   1.409       .  A
C795        C796   1.413       .  A
C795        F802   1.357       .  S
C796        C797   1.411       .  A
C796        H801   1.083       .  S
C797        C798   1.414       .  A
C798        F799   1.358       .  S
C803        C804   1.404       .  A
C803        C808   1.396       .  A
C803        H810   1.084       .  S
C804       C2657   1.472   1_554  S
C804        C805   1.406       .  A
C805        C806   1.399       .  A
C805        F812   1.358   1_554  S
C806        C807   1.405       .  A
C806        H811   1.084       .  S
C807        C808   1.406       .  A
C808        F809   1.358       .  S
C813        C814   1.406       .  A
C813        C818   1.407   1_545  A
C813        H820   1.083       .  S
C814        C815   1.409       .  A
C815        C816   1.392   1_545  A
C815        F822   1.358       .  S
C816        C817   1.404       .  A
C816        H821   1.083       .  S
C817        C818   1.413       .  A
C818        F819   1.357       .  S
C823        C824   1.399       .  A
C823        C828   1.388       .  A
C823        H830   1.081       .  S
C824        C825   1.408       .  A
C825        C826   1.409       .  A
C825        F832   1.357       .  S
C826        C827   1.406       .  A
C826        H831   1.083       .  S
C827        C828   1.403       .  A
C828        F829   1.359       .  S
C833        C834   1.403   1_545  A
C833        C838   1.397       .  A
C833        H840   1.084       .  S
C834        C835   1.407       .  A
C835        C836   1.396       .  A
C835        F842   1.358       .  S
C836        C837   1.402   1_565  A
C836        H841   1.084       .  S
C837        C838   1.406       .  A
C838        F839   1.357       .  S
C843        C844   1.411       .  A
C843        C848   1.410       .  A
C843        H850   1.083       .  S
C844        C845   1.410       .  A
C845        C846   1.392       .  A
C845        F852   1.358       .  S
C846        C847   1.405       .  A
C846        H851   1.083       .  S
C847        C848   1.410       .  A
C848        F849   1.357       .  S
C853        C854   1.407       .  A
C853        C858   1.408   1_655  A
C853        H860   1.083       .  S
C854        C855   1.409       .  A
C855        C856   1.395   1_655  A
C855        F862   1.358       .  S
C856        C857   1.406       .  A
C856        H861   1.083       .  S
C857        C858   1.412       .  A
C858        F859   1.357       .  S
C863        C864   1.405       .  A
C863        C868   1.397       .  A
C863        H870   1.083       .  S
C864        C865   1.415       .  A
C865        C866   1.409       .  A
C865        F872   1.357       .  S
C866        C867   1.404       .  A
C866        H871   1.083       .  S
C867        C868   1.410       .  A
C868        F869   1.357       .  S
C873        C874   1.401       .  A
C873        C878   1.396       .  A
C873        H880   1.084       .  S
C874        C875   1.406       .  A
C875        C876   1.404       .  A
C875        F882   1.357       .  S
C876        C877   1.406       .  A
C876        H881   1.083       .  S
C877       C2481   1.480       .  S
C877        C878   1.408       .  A
C878        F879   1.357       .  S
C883        C884   1.407       .  A
C883        C888   1.409       .  A
C883        H890   1.083       .  S
C884        C885   1.411       .  A
C885        C886   1.394       .  A
C885        F892   1.358       .  S
C886        C887   1.405       .  A
C886        H891   1.083       .  S
C887        C888   1.412       .  A
C888        F889   1.357       .  S
C893        C894   1.407       .  A
C893        C898   1.411       .  A
C893        H900   1.083       .  S
C894        C895   1.410       .  A
C895       C2768   1.393       .  A
C895       F2774   1.358       .  S
C896       C2767   1.392       .  A
C896       C2769   1.401   1_655  A
C896        H901   1.084   1_655  S
C897       C2450   1.483       .  S
C897        C898   1.411   1_455  A
C897       C2768   1.401   1_455  A
C898        F899   1.357       .  S
F902       C2767   1.357       .  S
C903        C904   1.406       .  A
C903        C908   1.405       .  A
C903        H910   1.083       .  S
C904        C905   1.404       .  A
C905        C906   1.397       .  A
C905        F912   1.358       .  S
C906        C907   1.406       .  A
C906        H911   1.084       .  S
C907        C908   1.408       .  A
C908        F909   1.358       .  S
C913        C914   1.403       .  A
C913        C918   1.403       .  A
C913        H920   1.083       .  S
C914        C915   1.400       .  A
C915        C916   1.388       .  A
C915        F922   1.359       .  S
C916        C917   1.405       .  A
C916        H921   1.083       .  S
C917        C918   1.407       .  A
C918        F919   1.357       .  S
C923        C924   1.406       .  A
C923        C928   1.389       .  A
C923        H930   1.083       .  S
C924        C925   1.410       .  A
C925        C926   1.406       .  A
C925        F932   1.357       .  S
C926        C927   1.405       .  A
C926        H931   1.083       .  S
C927        C928   1.401       .  A
C928        F929   1.357       .  S
C933        C934   1.407       .  A
C933        C938   1.408       .  A
C933        H940   1.083       .  S
C934        C935   1.409       .  A
C935        C936   1.389       .  A
C935        F942   1.358       .  S
C936        C937   1.405       .  A
C936        H941   1.083       .  S
C937        C938   1.412       .  A
C938        F939   1.357       .  S
C943        C944   1.405       .  A
C943        C948   1.396       .  A
C943        H950   1.084       .  S
C944        C945   1.405       .  A
C945        C946   1.409       .  A
C945        F952   1.357       .  S
C946        C947   1.413   1_545  A
C946        H951   1.083       .  S
C947        C948   1.410   1_565  A
C948        F949   1.356   1_545  S
C953        C954   1.408       .  A
C953        C958   1.394       .  A
C953        H960   1.083       .  S
C954        C955   1.408       .  A
C955        C956   1.406       .  A
C955        F962   1.357       .  S
C956        C957   1.409       .  A
C956        H961   1.083       .  S
C957        C958   1.408       .  A
C958        F959   1.358       .  S
C963        C964   1.401       .  A
C963        C968   1.388       .  A
C963        H970   1.084       .  S
C964        C965   1.409       .  A
C965        C966   1.405       .  A
C965        F972   1.357       .  S
C966        C967   1.404       .  A
C966        H971   1.083       .  S
C967        C968   1.406       .  A
C968        F969   1.358       .  S
C973        C974   1.402       .  A
C973        C978   1.395       .  A
C973        H980   1.084       .  S
C974        C975   1.406       .  A
C975        C976   1.402       .  A
C975        F982   1.358       .  S
C976        C977   1.404       .  A
C976        H981   1.083       .  S
C977        C978   1.403       .  A
C978        F979   1.357       .  S
C983        C984   1.408       .  A
C983        C988   1.406   1_655  A
C983        H990   1.083       .  S
C984        C985   1.410       .  A
C985        C986   1.392       .  A
C985        F992   1.359       .  S
C986        C987   1.401   1_655  A
C986        H991   1.084       .  S
C987        C988   1.404       .  A
C988        F989   1.356       .  S
C993        C998   1.406       .  A
C993       C2866   1.402       .  A
C993       H1000   1.083       .  S
C994        C995   1.406       .  A
C994       C2865   1.403   1_554  A
C995        C996   1.396   1_565  A
C995       F1002   1.358       .  S
C996        C997   1.406       .  A
C996       H1001   1.083       .  S
C997       C2626   1.491   1_554  S
C997       C2870   1.415   1_544  A
C998       C2869   1.416   1_565  A
C998        F999   1.357       .  S
C1003      C1004   1.406       .  A
C1003      C1008   1.389       .  A
C1003      H1010   1.083       .  S
C1004      C1005   1.411       .  A
C1005      C1006   1.405       .  A
C1005      F1012   1.357       .  S
C1006      C1007   1.403       .  A
C1006      H1011   1.083       .  S
C1007      C1008   1.400       .  A
C1008      F1009   1.359       .  S
C1013      C1014   1.399       .  A
C1013      C1018   1.397       .  A
C1013      H1020   1.083       .  S
C1014      C1015   1.403       .  A
C1015      C1016   1.397       .  A
C1015      F1022   1.357       .  S
C1016      C1017   1.403       .  A
C1016      H1021   1.083       .  S
C1017      C1018   1.408       .  A
C1018      F1019   1.356       .  S
C1023      C1024   1.408       .  A
C1023      C1028   1.412       .  A
C1023      H1030   1.083       .  S
C1024      C1025   1.407       .  A
C1025      C1026   1.396       .  A
C1025      F1032   1.355       .  S
C1026      C1027   1.402       .  A
C1026      H1031   1.084       .  S
C1027      C1028   1.410       .  A
C1028      F1029   1.357       .  S
C1033      C1034   1.407       .  A
C1033      C1038   1.393       .  A
C1033      H1040   1.083       .  S
C1034      C1035   1.414       .  A
C1035      C1036   1.413       .  A
C1035      F1042   1.357       .  S
C1036      C1037   1.407       .  A
C1036      H1041   1.083       .  S
C1037      C1038   1.406       .  A
C1038      F1039   1.358       .  S
C1043      C1044   1.410       .  A
C1043      C1048   1.406       .  A
C1043      H1050   1.083       .  S
C1044      C1045   1.406       .  A
C1045      C1046   1.390       .  A
C1045      F1052   1.358       .  S
C1046      C1047   1.402       .  A
C1046      H1051   1.081       .  S
C1047      C1048   1.405       .  A
C1048      F1049   1.357       .  S
C1053      C1054   1.403       .  A
C1053      C1058   1.404       .  A
C1053      H1060   1.083       .  S
C1054      C1055   1.402       .  A
C1055      C1056   1.392       .  A
C1055      F1062   1.356       .  S
C1056      C1057   1.405       .  A
C1056      H1061   1.083       .  S
C1057      C1058   1.411       .  A
C1058      F1059   1.357       .  S
C1063      C1064   1.403       .  A
C1063      C1068   1.401       .  A
C1063      H1070   1.083       .  S
C1064      C1065   1.401       .  A
C1065      C1066   1.393       .  A
C1065      F1072   1.358       .  S
C1066      C1067   1.405       .  A
C1066      H1071   1.084       .  S
C1067      C2371   1.475       .  S
C1067      C1068   1.408       .  A
C1068      F2941   1.358       .  S
F1069      C2940   1.357   1_554  S
C1073      C1074   1.404       .  A
C1073      C1078   1.407       .  A
C1073      H1080   1.083       .  S
C1074      C1075   1.406       .  A
C1075      C1076   1.400       .  A
C1075      F1082   1.358       .  S
C1076      C1077   1.405       .  A
C1076      H1081   1.083       .  S
C1077      C1078   1.410       .  A
C1078      F1079   1.357       .  S
C1083      C1084   1.406       .  A
C1083      C1088   1.398       .  A
C1083      H1090   1.084       .  S
C1084      C1085   1.408       .  A
C1085      C1086   1.409       .  A
C1085      F1092   1.357       .  S
C1086      C1087   1.410       .  A
C1086      H1091   1.083       .  S
C1087      C1088   1.411       .  A
C1088      F1089   1.358       .  S
C1093      C1094   1.401       .  A
C1093      C1098   1.396       .  A
C1093      H1100   1.084       .  S
C1094      C1095   1.406       .  A
C1095      C1096   1.409       .  A
C1095      F1102   1.355       .  S
C1096      C1097   1.409       .  A
C1096      H1101   1.083       .  S
C1097      C1098   1.411       .  A
C1098      F1099   1.358       .  S
C1103      C1104   1.400       .  A
C1103      C1108   1.391       .  A
C1103      H1110   1.084       .  S
C1104      C1105   1.404       .  A
C1105      C1106   1.405       .  A
C1105      F1112   1.357       .  S
C1106      C1107   1.410       .  A
C1106      H1111   1.083       .  S
C1107      C1108   1.408       .  A
C1108      F1109   1.356       .  S
C1113      C1114   1.407       .  A
C1113      C1118   1.398       .  A
C1113      H1120   1.083       .  S
C1114      C1115   1.411       .  A
C1115      C1116   1.406       .  A
C1115      F1122   1.357       .  S
C1116      C1117   1.405       .  A
C1116      H1121   1.083       .  S
C1117      C1118   1.407       .  A
C1118      F1119   1.358       .  S
C1123      C1124   1.401       .  A
C1123      C1128   1.393       .  A
C1123      H1130   1.084       .  S
C1124      C1125   1.408       .  A
C1125      C1126   1.406       .  A
C1125      F1132   1.357       .  S
C1126      C1127   1.405       .  A
C1126      H1131   1.083       .  S
C1127      C1128   1.406       .  A
C1128      F1129   1.358       .  S
C1133      C1134   1.406       .  A
C1133      C1138   1.405       .  A
C1133      H1140   1.083       .  S
C1134      C3007   1.400       .  A
C1135      C1136   1.400       .  A
C1135      C3006   1.406   1_554  A
C1135      F1142   1.358       .  S
C1136      C3009   1.407       .  A
C1136      H1141   1.084       .  S
C1137      C2384   1.488       .  S
C1137      C1138   1.409       .  A
C1137      C3008   1.410       .  A
C1138      F1139   1.357       .  S
C1143      C1144   1.411       .  A
C1143      C1148   1.407       .  A
C1143      H1150   1.083       .  S
C1144      C1145   1.410       .  A
C1145      C1146   1.396       .  A
C1145      F1152   1.357       .  S
C1146      C1147   1.403       .  A
C1146      H1151   1.084       .  S
C1147      C1148   1.405       .  A
C1148      F1149   1.357       .  S
C1153      C1154   1.402       .  A
C1153      C1158   1.405       .  A
C1153      H1160   1.083       .  S
C1154      C1155   1.404       .  A
C1155      C1156   1.397       .  A
C1155      F1162   1.358       .  S
C1156      C1157   1.406       .  A
C1156      H1161   1.083       .  S
C1157      C1158   1.415       .  A
C1158      F1159   1.357       .  S
C1163      C1164   1.405       .  A
C1163      C1168   1.404       .  A
C1163      H1170   1.083       .  S
C1164      C1165   1.405       .  A
C1165      C1166   1.396       .  A
C1165      F1172   1.358       .  S
C1166      C1167   1.405       .  A
C1166      H1171   1.083       .  S
C1167      C1168   1.408       .  A
C1168      F1169   1.357       .  S
C1173      C1174   1.408       .  A
C1173      C1178   1.407       .  A
C1173      H1180   1.083       .  S
C1174      C1175   1.407       .  A
C1175      C1176   1.393       .  A
C1175      F3054   1.358       .  S
C1176      C1177   1.403       .  A
C1176      H3053   1.084       .  S
C1177      C1178   1.408       .  A
C1178      F1179   1.357       .  S
H1181      C3048   1.083       .  S
F1182      C3047   1.358       .  S
C1183      C1184   1.400       .  A
C1183      C1188   1.394       .  A
C1183      H1190   1.084       .  S
C1184      C1185   1.409       .  A
C1185      C1186   1.408       .  A
C1185      F1192   1.357       .  S
C1186      C1187   1.406       .  A
C1186      H1191   1.083       .  S
C1187      C1188   1.408       .  A
C1188      F1189   1.358       .  S
C1193      C1194   1.403       .  A
C1193      C1198   1.393       .  A
C1193      H1200   1.083       .  S
C1194      C1195   1.413       .  A
C1195      C1196   1.404       .  A
C1195      F1202   1.357       .  S
C1196      C1197   1.402       .  A
C1196      H1201   1.083       .  S
C1197      C1198   1.405       .  A
C1198      F1199   1.355       .  S
C1203      C1204   1.402       .  A
C1203      C1208   1.405       .  A
C1203      H1210   1.083       .  S
C1204      C1205   1.404       .  A
C1205      C1206   1.396       .  A
C1205      F1212   1.357       .  S
C1206      C1207   1.406       .  A
C1206      H1211   1.083       .  S
C1207      C1208   1.414       .  A
C1208      F1209   1.357       .  S
C1213      C1214   1.406       .  A
C1213      C1218   1.393       .  A
C1213      H1220   1.084       .  S
C1214      C1215   1.405       .  A
C1215      C1216   1.408       .  A
C1215      F1222   1.357       .  S
C1216      C1217   1.413       .  A
C1216      H1221   1.083       .  S
C1217      C1218   1.408       .  A
C1218      F1219   1.358       .  S
C1223      C1224   1.401       .  A
C1223      C3100   1.390   1_554  A
C1223      H1230   1.084       .  S
C1224      C3097   1.407   1_554  A
C1225      C1226   1.404       .  A
C1225      C3096   1.408       .  A
C1225      F3104   1.357       .  S
C1226      C1227   1.408       .  A
C1226      H1231   1.083       .  S
C1227      C1228   1.411       .  A
C1228      C3095   1.389       .  A
C1228      F1229   1.358       .  S
F1232      C3097   1.357   1_554  S
C1233      C1234   1.406       .  A
C1233      C1238   1.392       .  A
C1233      H1240   1.083       .  S
C1234      C1235   1.412       .  A
C1235      C1236   1.408       .  A
C1235      F1242   1.357       .  S
C1236      C1237   1.405       .  A
C1236      H1241   1.083       .  S
C1237      C1238   1.403       .  A
C1238      F1239   1.358       .  S
C1243      C1244   1.407       .  A
C1243      C1248   1.408       .  A
C1243      H1250   1.083       .  S
C1244      C1245   1.404       .  A
C1245      C1246   1.396       .  A
C1245      F1252   1.358       .  S
C1246      C1247   1.405       .  A
C1246      H1251   1.084       .  S
C1247      C1248   1.407       .  A
C1248      F1249   1.357       .  S
C1253      C1254   1.406       .  A
C1253      C1258   1.395       .  A
C1253      H1260   1.083       .  S
C1254      C1255   1.407       .  A
C1255      C1256   1.404       .  A
C1255      F1262   1.357       .  S
C1256      C1257   1.404       .  A
C1256      H1261   1.082       .  S
C1257      C2239   1.468   1_554  S
C1257      C1258   1.402       .  A
C1258      F1259   1.358   1_554  S
C1263      C1264   1.402       .  A
C1263      C1268   1.387       .  A
C1263      H1270   1.084       .  S
C1264      C1265   1.407       .  A
C1265      C1266   1.402       .  A
C1265      F1272   1.357       .  S
C1266      C1267   1.405       .  A
C1266      H1271   1.083       .  S
C1267      C1268   1.405       .  A
C1268      F1269   1.358       .  S
C1273      C1274   1.398       .  A
C1273      C3150   1.383   1_554  A
C1273      H1280   1.083       .  S
C1274      C1275   1.405       .  A
C1275      C3148   1.404   1_554  A
C1275      F1282   1.357       .  S
C1276      C1277   1.405       .  A
C1276      C3147   1.403       .  A
C1276      H1281   1.083       .  S
C1277      C1278   1.402       .  A
C1278      C3145   1.384       .  A
C1278      F1279   1.359       .  S
C1283      C1284   1.410       .  A
C1283      C1288   1.411   1_655  A
C1283      H1290   1.083       .  S
C1284      C1285   1.407       .  A
C1285      C1286   1.387   1_655  A
C1285      F1292   1.358       .  S
C1286      C1287   1.404       .  A
C1286      H1291   1.083       .  S
C1287      C1288   1.410       .  A
C1288      F1289   1.357       .  S
C1293      C1294   1.409       .  A
C1293      C1298   1.400       .  A
C1293      H1300   1.083       .  S
C1294      C1295   1.411       .  A
C1295      C1296   1.404       .  A
C1295      F1302   1.357       .  S
C1296      C1297   1.404       .  A
C1296      H1301   1.084       .  S
C1297      C1298   1.403       .  A
C1298      F1299   1.358       .  S
C1303      C1304   1.401   1_655  A
C1303      C1308   1.387       .  A
C1303      H1310   1.086       .  S
C1304      C1305   1.408       .  A
C1305      C1306   1.409   1_455  A
C1305      F1312   1.356       .  S
C1306      C1307   1.406       .  A
C1306      H1311   1.085   1_655  S
C1307      C1308   1.405       .  A
C1308      F1309   1.356       .  S
C1313      C1314   1.401   1_655  A
C1313      C1318   1.398       .  A
C1313      H1320   1.083   1_655  S
C1314      C1315   1.406   1_455  A
C1315      C1316   1.401       .  A
C1315      F1322   1.358       .  S
C1316      C1317   1.403       .  A
C1316      H1321   1.083       .  S
C1317      C1318   1.404       .  A
C1318      F1319   1.357       .  S
C1323      C1324   1.406       .  A
C1323      C1328   1.398       .  A
C1323      H1330   1.083       .  S
C1324      C1325   1.413       .  A
C1325      C1326   1.404       .  A
C1325      F1332   1.357       .  S
C1326      C1327   1.402       .  A
C1326      H1331   1.083       .  S
C1327      C1328   1.406       .  A
C1328      F1329   1.358       .  S
C1333      C1334   1.406       .  A
C1333      C1338   1.389       .  A
C1333      H1340   1.083       .  S
C1334      C1335   1.411       .  A
C1335      C1336   1.407       .  A
C1335      F1342   1.357       .  S
C1336      C1337   1.404       .  A
C1336      H1341   1.083       .  S
C1337      C1338   1.401       .  A
C1338      F1339   1.359       .  S
C1343      C1344   1.400       .  A
C1343      C1348   1.395       .  A
C1343      H1350   1.084       .  S
C1344      C1345   1.404       .  A
C1345      C1346   1.401       .  A
C1345      F1352   1.357       .  S
C1346      C1347   1.404       .  A
C1346      H1351   1.083       .  S
C1347      C1348   1.406       .  A
C1348      F1349   1.358       .  S
C1353      C1354   1.403       .  A
C1353      C1358   1.398       .  A
C1353      H1360   1.084       .  S
C1354      C1355   1.404       .  A
C1355      C1356   1.405       .  A
C1355      F1362   1.357       .  S
C1356      C1357   1.411       .  A
C1356      H1361   1.083       .  S
C1357      C1358   1.410       .  A
C1358      F1359   1.358       .  S
C1363      C1364   1.404       .  A
C1363      C1368   1.405       .  A
C1363      H1370   1.083       .  S
C1364      C1365   1.403       .  A
C1365      C1366   1.399       .  A
C1365      F1372   1.358       .  S
C1366      C1367   1.408       .  A
C1366      H1371   1.083       .  S
C1367      C1368   1.411       .  A
C1368      F1369   1.357       .  S
C1373      C1374   1.408       .  A
C1373      C1378   1.407       .  A
C1373      H1380   1.083       .  S
C1374      C1375   1.409       .  A
C1375      C1376   1.384       .  A
C1375      F1382   1.358       .  S
C1376      C1377   1.404       .  A
C1376      H1381   1.083       .  S
C1377      C1378   1.409       .  A
C1378      F1379   1.357       .  S
C1383      C1384   1.407       .  A
C1383      C1388   1.404       .  A
C1383      H1390   1.083       .  S
C1384      C1385   1.407       .  A
C1385      C1386   1.389       .  A
C1385      F1392   1.358       .  S
C1386      C1387   1.401       .  A
C1386      H1391   1.084       .  S
C1387      C1388   1.406       .  A
C1388      F1389   1.357       .  S
C1393      C1394   1.405       .  A
C1393      C1398   1.394       .  A
C1393      H1400   1.084       .  S
C1394      C1395   1.409       .  A
C1395      C1396   1.412   1_554  A
C1395      F1402   1.357   1_554  S
C1396      C1397   1.409   1_456  A
C1396      H3273   1.083       .  S
C1397      C2252   1.486   1_554  S
C1397      C1398   1.406   1_655  A
C1398      F1399   1.358   1_455  S
H1401      C3268   1.083   1_655  S
C1403      C1404   1.407       .  A
C1403      C1408   1.412       .  A
C1403      H1410   1.083       .  S
C1404      C1405   1.408       .  A
C1405      C1406   1.390       .  A
C1405      F3284   1.359       .  S
C1406      C1407   1.405       .  A
C1406      H3283   1.083       .  S
C1407      C1408   1.413       .  A
C1408      F1409   1.357       .  S
H1411      C3278   1.083       .  S
F1412      C3277   1.358       .  S
C1413      C1414   1.401       .  A
C1413      C1418   1.388       .  A
C1413      H1420   1.083       .  S
C1414      C1415   1.414       .  A
C1415      C1416   1.405       .  A
C1415      F1422   1.357       .  S
C1416      C1417   1.403       .  A
C1416      H1421   1.083       .  S
C1417      C1418   1.408       .  A
C1418      F1419   1.358       .  S
C1423      C1424   1.400       .  A
C1423      C1428   1.395       .  A
C1423      H1430   1.084       .  S
C1424      C1425   1.405       .  A
C1425      C1426   1.402       .  A
C1425      F1432   1.357       .  S
C1426      C1427   1.408       .  A
C1426      H1431   1.083       .  S
C1427      C1428   1.411       .  A
C1428      F1429   1.357       .  S
C1433      C1434   1.411       .  A
C1433      C1438   1.407       .  A
C1433      H1440   1.083       .  S
C1434      C1435   1.411       .  A
C1435      C1436   1.394       .  A
C1435      F1442   1.358       .  S
C1436      C1437   1.402       .  A
C1436      H1441   1.084       .  S
C1437      C1438   1.405       .  A
C1438      F1439   1.357       .  S
C1443      C1444   1.406       .  A
C1443      C1448   1.399       .  A
C1443      H1450   1.083       .  S
C1444      C1445   1.408       .  A
C1445      C1446   1.398   1_545  A
C1445      F1452   1.357   1_545  S
C1446      C1447   1.403       .  A
C1446      H1451   1.084       .  S
C1447      C1448   1.407   1_565  A
C1448      F1449   1.358       .  S
C1453      C1454   1.407       .  A
C1453      C1458   1.409       .  A
C1453      H1460   1.083       .  S
C1454      C1455   1.400       .  A
C1455      C1456   1.392       .  A
C1455      F1462   1.358       .  S
C1456      C1457   1.407       .  A
C1456      H1461   1.084       .  S
C1457      C1458   1.409       .  A
C1458      F1459   1.357       .  S
C1463      C1464   1.404   1_565  A
C1463      C1468   1.396       .  A
C1463      H1470   1.084       .  S
C1464      C1465   1.406       .  A
C1465      C1466   1.405   1_545  A
C1465      F1472   1.357       .  S
C1466      C1467   1.408       .  A
C1466      H1471   1.083       .  S
C1467      C1468   1.407       .  A
C1468      F1469   1.358       .  S
C1473      C1474   1.402       .  A
C1473      C1478   1.398       .  A
C1473      H1480   1.084       .  S
C1474      C1475   1.404       .  A
C1475      C1476   1.401       .  A
C1475      F1482   1.358       .  S
C1476      C1477   1.405       .  A
C1476      H1481   1.084       .  S
C1477      C1478   1.404       .  A
C1478      F1479   1.357       .  S
C1483      C1484   1.409       .  A
C1483      C1488   1.406       .  A
C1483      H1490   1.083       .  S
C1484      C1485   1.409       .  A
C1485      C1486   1.397       .  A
C1485      F1492   1.358       .  S
C1486      C1487   1.405       .  A
C1486      H1491   1.084       .  S
C1487      C1488   1.407       .  A
C1488      F1489   1.357       .  S
C1493      C1494   1.404       .  A
C1493      C1498   1.405       .  A
C1493      H1500   1.083       .  S
C1494      C1495   1.406       .  A
C1495      C3368   1.396       .  A
C1495      F1502   1.357       .  S
C1496      C1497   1.405       .  A
C1496      C3367   1.396   1_554  A
C1496      H1501   1.083       .  S
C1497      C3370   1.412   1_554  A
C1498      C3369   1.412       .  A
C1498      F3371   1.357       .  S
F1499      C3370   1.357   1_554  S
C1503      C1504   1.406       .  A
C1503      C1508   1.393       .  A
C1503      H1510   1.084       .  S
C1504      C2129   1.482       .  S
C1504      C1505   1.409       .  A
C1505      C1506   1.405       .  A
C1505      F3384   1.357       .  S
C1506      C1507   1.404       .  A
C1506      H1511   1.082       .  S
C1507      C1508   1.402       .  A
C1508      F1509   1.358       .  S
F1512      C3377   1.357   1_554  S
C1513      C1514   1.403       .  A
C1513      C1518   1.400       .  A
C1513      H1520   1.083       .  S
C1514      C1515   1.408       .  A
C1515      C1516   1.403       .  A
C1515      F1522   1.357       .  S
C1516      C1517   1.402       .  A
C1516      H1521   1.083       .  S
C1517      C1518   1.405       .  A
C1518      F1519   1.358       .  S
C1523      C1524   1.405       .  A
C1523      C1528   1.404       .  A
C1523      H1530   1.083       .  S
C1524      C1525   1.405       .  A
C1525      C1526   1.403       .  A
C1525      F1532   1.358       .  S
C1526      C1527   1.409       .  A
C1526      H1531   1.083       .  S
C1527      C1528   1.408       .  A
C1528      F1529   1.357       .  S
C1533      C1534   1.410       .  A
C1533      C1538   1.407   1_545  A
C1533      H1540   1.083       .  S
C1534      C1535   1.411       .  A
C1535      C1536   1.398   1_545  A
C1535      F1542   1.358       .  S
C1536      C1537   1.401       .  A
C1536      H1541   1.084       .  S
C1537      C1538   1.406       .  A
C1538      F1539   1.357       .  S
C1543      C1548   1.405   1_556  A
C1543      C3416   1.406       .  A
C1543      H3422   1.083       .  S
C1544      C1545   1.414       .  A
C1544      C3415   1.409       .  A
C1545      C3418   1.398       .  A
C1545      F1552   1.358       .  S
C1546      C1547   1.401       .  A
C1546      C3417   1.392       .  A
C1546      H1551   1.084       .  S
C1547      C1548   1.407       .  A
C1548      F1549   1.357       .  S
H1550      C3415   1.083       .  S
C1553      C1554   1.409       .  A
C1553      C1558   1.411       .  A
C1553      H1560   1.083       .  S
C1554      C1555   1.414       .  A
C1555      C1556   1.388       .  A
C1555      F1562   1.358       .  S
C1556      C1557   1.398       .  A
C1556      H1561   1.084       .  S
C1557      C1558   1.411       .  A
C1558      F1559   1.357       .  S
C1563      C1564   1.400       .  A
C1563      C1568   1.396       .  A
C1563      H1570   1.083       .  S
C1564      C1565   1.406       .  A
C1565      C1566   1.405       .  A
C1565      F1572   1.357       .  S
C1566      C1567   1.406       .  A
C1566      H1571   1.083       .  S
C1567      C1568   1.409       .  A
C1568      F1569   1.358       .  S
C1573      C1574   1.400       .  A
C1573      C1578   1.393       .  A
C1573      H1580   1.083       .  S
C1574      C1575   1.405       .  A
C1575      C1576   1.409       .  A
C1575      F1582   1.357       .  S
C1576      C1577   1.410       .  A
C1576      H1581   1.083       .  S
C1577      C1578   1.408       .  A
C1578      F1579   1.358       .  S
C1583      C1584   1.402       .  A
C1583      C1588   1.396       .  A
C1583      H1590   1.083       .  S
C1584      C1585   1.409       .  A
C1585      C1586   1.408       .  A
C1585      F1592   1.357       .  S
C1586      C1587   1.405       .  A
C1586      H1591   1.083       .  S
C1587      C1588   1.407       .  A
C1588      F1589   1.358       .  S
C1593      C1594   1.409       .  A
C1593      C1598   1.404       .  A
C1593      H1600   1.083       .  S
C1594      C1595   1.411       .  A
C1595      C1596   1.395       .  A
C1595      F1602   1.357       .  S
C1596      C1597   1.400       .  A
C1596      H1601   1.084       .  S
C1597      C1598   1.405       .  A
C1598      F1599   1.357       .  S
C1603      C1604   1.402       .  A
C1603      C1608   1.404       .  A
C1603      H1610   1.083       .  S
C1604      C1605   1.404       .  A
C1605      C1606   1.396       .  A
C1605      F1612   1.358       .  S
C1606      C1607   1.403       .  A
C1606      H1611   1.083       .  S
C1607      C1608   1.411       .  A
C1608      F1609   1.357       .  S
C1613      C1614   1.404       .  A
C1613      C1618   1.396       .  A
C1613      H1620   1.084       .  S
C1614      C3487   1.403       .  A
C1615      C1616   1.405       .  A
C1615      C3486   1.403   1_554  A
C1615      F1622   1.357       .  S
C1616      C3489   1.412   1_554  A
C1616      H1621   1.083       .  S
C1617      C2098   1.492   1_545  S
C1617      C1618   1.409       .  A
C1617      C3488   1.413       .  A
C1618      F1619   1.357   1_545  S
C1623      C1624   1.406       .  A
C1623      C1628   1.409       .  A
C1623      H1630   1.083       .  S
C1624      C1625   1.412       .  A
C1625      C1626   1.395       .  A
C1625      F1632   1.358       .  S
C1626      C1627   1.404       .  A
C1626      H1631   1.083       .  S
C1627      C1628   1.413       .  A
C1628      F1629   1.357       .  S
C1633      C1634   1.401   1_556  A
C1633      C1638   1.397       .  A
C1633      H1640   1.084       .  S
C1634      C1635   1.406       .  A
C1635      C1636   1.404       .  A
C1635      F1642   1.358       .  S
C1636      C1637   1.408       .  A
C1636      H1641   1.083       .  S
C1637      C1966   1.485   1_554  S
C1637      C1638   1.410   1_554  A
C1638      F3511   1.358       .  S
F1639      C3510   1.358       .  S
C1643      C1644   1.407       .  A
C1643      C1648   1.400       .  A
C1643      H1650   1.083       .  S
C1644      C1645   1.408       .  A
C1645      C1646   1.397       .  A
C1645      F1652   1.357       .  S
C1646      C1647   1.400       .  A
C1646      H1651   1.084       .  S
C1647      C1648   1.402       .  A
C1648      F1649   1.358       .  S
C1653      C1654   1.404       .  A
C1653      C1658   1.398       .  A
C1653      H1660   1.083       .  S
C1654      C1655   1.405       .  A
C1655      C1656   1.397       .  A
C1655      F1662   1.358       .  S
C1656      C1657   1.402       .  A
C1656      H1661   1.084       .  S
C1657      C1658   1.403       .  A
C1658      F1659   1.358       .  S
C1663      C1664   1.407       .  A
C1663      C1668   1.397       .  A
C1663      H1670   1.083       .  S
C1664      C1665   1.410       .  A
C1665      C1666   1.400       .  A
C1665      F1672   1.358       .  S
C1666      C1667   1.402       .  A
C1666      H1671   1.084       .  S
C1667      C1668   1.403       .  A
C1668      F1669   1.358       .  S
C1673      C1674   1.411       .  A
C1673      C1678   1.414       .  A
C1673      H1680   1.083       .  S
C1674      C1675   1.403       .  A
C1675      C1676   1.390       .  A
C1675      F1682   1.358       .  S
C1676      C1677   1.404       .  A
C1676      H1681   1.084       .  S
C1677      C1678   1.409       .  A
C1678      F1679   1.357       .  S
C1683      C1684   1.410   1_556  A
C1683      C3560   1.408       .  A
C1683      H1690   1.083   1_556  S
C1684      C1685   1.406       .  A
C1685      C3558   1.392   1_554  A
C1685      F1692   1.358       .  S
C1686      C1687   1.404       .  A
C1686      C3557   1.395       .  A
C1686      H1691   1.083       .  S
C1687      C1688   1.404       .  A
C1688      C3555   1.406       .  A
C1688      F1689   1.357       .  S
C1693      C1694   1.412       .  A
C1693      C1698   1.406       .  A
C1693      H1700   1.083       .  S
C1694      C1695   1.410       .  A
C1695      C1696   1.397       .  A
C1695      F1702   1.357       .  S
C1696      C1697   1.402       .  A
C1696      H1701   1.083       .  S
C1697      C1698   1.405       .  A
C1698      F1699   1.357       .  S
C1703      C1704   1.402       .  A
C1703      C1708   1.395       .  A
C1703      H1710   1.084       .  S
C1704      C1705   1.409       .  A
C1705      C1706   1.404       .  A
C1705      F1712   1.358       .  S
C1706      C1707   1.403       .  A
C1706      H1711   1.083       .  S
C1707      C1708   1.403       .  A
C1708      F1709   1.357       .  S
C1713      C1714   1.398       .  A
C1713      C1718   1.393       .  A
C1713      H1720   1.084       .  S
C1714      C1715   1.405       .  A
C1715      C1716   1.404       .  A
C1715      F1722   1.358       .  S
C1716      C1717   1.408       .  A
C1716      H1721   1.083       .  S
C1717      C1718   1.412       .  A
C1718      F1719   1.358       .  S
C1723      C1724   1.403       .  A
C1723      C3600   1.392       .  A
C1723      H1730   1.084       .  S
C1724      C3597   1.412       .  A
C1725      C1726   1.407       .  A
C1725      C3596   1.411   1_554  A
C1725      F3604   1.357   1_554  S
C1726      C1727   1.405       .  A
C1726      H1731   1.083       .  S
C1727      C1728   1.405       .  A
C1728      C3595   1.393   1_554  A
C1728      F1729   1.358       .  S
F1732      C3597   1.357       .  S
C1733      C1734   1.400       .  A
C1733      C1738   1.387       .  A
C1733      H1740   1.085       .  S
C1734      C1735   1.406       .  A
C1735      C1736   1.408       .  A
C1735      F1742   1.356       .  S
C1736      C1737   1.406       .  A
C1736      H1741   1.083       .  S
C1737      C1997   1.471       .  S
C1737      C1738   1.404       .  A
C1738      F1739   1.355       .  S
C1743      C1744   1.404       .  A
C1743      C1748   1.397       .  A
C1743      H1750   1.083       .  S
C1744      C1745   1.408       .  A
C1745      C1746   1.405       .  A
C1745      F1752   1.357       .  S
C1746      C1747   1.408       .  A
C1746      H1751   1.083       .  S
C1747      C1748   1.409       .  A
C1748      F1749   1.358       .  S
C1753      C1754   1.402       .  A
C1753      C1758   1.393       .  A
C1753      H1760   1.084       .  S
C1754      C1755   1.409       .  A
C1755      C1756   1.408       .  A
C1755      F1762   1.357       .  S
C1756      C1757   1.407       .  A
C1756      H1761   1.083       .  S
C1757      C1758   1.408       .  A
C1758      F1759   1.358       .  S
C1763      C1764   1.404       .  A
C1763      C1768   1.407       .  A
C1763      H1770   1.083       .  S
C1764      C1765   1.409       .  A
C1765      C1766   1.392       .  A
C1765      F1772   1.355       .  S
C1766      C1767   1.398       .  A
C1766      H1771   1.084       .  S
C1767      C1768   1.410       .  A
C1768      F1769   1.357       .  S
C1773      C1774   1.398       .  A
C1773      C1778   1.390       .  A
C1773      H1780   1.084       .  S
C1774      C1775   1.408       .  A
C1775      C1776   1.403       .  A
C1775      F1782   1.357       .  S
C1776      C1777   1.404       .  A
C1776      H1781   1.083       .  S
C1777      C1778   1.411       .  A
C1778      F1779   1.358       .  S
C1783      C1784   1.403       .  A
C1783      C1788   1.397       .  A
C1783      H1790   1.084       .  S
C1784      C1785   1.407       .  A
C1785      C1786   1.399       .  A
C1785      F1792   1.357       .  S
C1786      C1787   1.401       .  A
C1786      H1791   1.083       .  S
C1787      C1788   1.403       .  A
C1788      F1789   1.355       .  S
C1793      C1794   1.405       .  A
C1793      C1798   1.399       .  A
C1793      H1800   1.083       .  S
C1794      C1795   1.407       .  A
C1795      C1796   1.395       .  A
C1795      F1802   1.357       .  S
C1796      C1797   1.400       .  A
C1796      H1801   1.084       .  S
C1797      C1798   1.403       .  A
C1798      F1799   1.357       .  S
C1803      C1804   1.405       .  A
C1803      C1808   1.406       .  A
C1803      H1810   1.083       .  S
C1804      C1805   1.405       .  A
C1805      C1806   1.402       .  A
C1805      F1812   1.358       .  S
C1806      C1807   1.408       .  A
C1806      H1811   1.083       .  S
C1807      C1808   1.411       .  A
C1808      F1809   1.357       .  S
C1813      C1814   1.408       .  A
C1813      C1818   1.409       .  A
C1813      H1820   1.083       .  S
C1814      C1815   1.408       .  A
C1815      C1816   1.402       .  A
C1815      F1822   1.358       .  S
C1816      C1817   1.406   1_455  A
C1816      H1821   1.084       .  S
C1817      C1818   1.408   1_655  A
C1818      F1819   1.357   1_455  S
C1823      C1824   1.407       .  A
C1823      C1828   1.395       .  A
C1823      H1830   1.084       .  S
C1824      C1825   1.406       .  A
C1825      C1826   1.406       .  A
C1825      F1832   1.357       .  S
C1826      C1827   1.411       .  A
C1826      H1831   1.083       .  S
C1827      C1828   1.407       .  A
C1828      F1829   1.358       .  S
C1833      C1834   1.403       .  A
C1833      C1838   1.392       .  A
C1833      H1840   1.084       .  S
C1834      C1835   1.409       .  A
C1835      C1836   1.410       .  A
C1835      F1842   1.357       .  S
C1836      C1837   1.408       .  A
C1836      H1841   1.083       .  S
C1837      C1838   1.406       .  A
C1838      F1839   1.359       .  S
C1843      C1844   1.403       .  A
C1843      C1848   1.404       .  A
C1843      H1850   1.083       .  S
C1844      C1845   1.402       .  A
C1845      C1846   1.397       .  A
C1845      F1852   1.358       .  S
C1846      C1847   1.406       .  A
C1846      H1851   1.083       .  S
C1847      C1848   1.410       .  A
C1848      F1849   1.357       .  S
C1853      C1854   1.405       .  A
C1853      C1858   1.404       .  A
C1853      H1860   1.083       .  S
C1854      C1855   1.408       .  A
C1855      C1856   1.395       .  A
C1855      F1862   1.357       .  S
C1856      C1857   1.403       .  A
C1856      H1861   1.083       .  S
C1857      C1858   1.409       .  A
C1858      F1859   1.357       .  S
C1863      C1864   1.404       .  A
C1863      C1868   1.400       .  A
C1863      H1870   1.084       .  S
C1864      C1865   1.403       .  A
C1865      C1866   1.404       .  A
C1865      F1872   1.357       .  S
C1866      C1867   1.411       .  A
C1866      H1871   1.083       .  S
C1867      C1868   1.409       .  A
C1868      F1869   1.357       .  S
O1873     Cr1891   2.015       .  S
O1873      C1881   1.270       .  A
O1874     Cr1891   1.975       .  S
O1874      C1875   1.256       .  A
C1875      O1876   1.266       .  A
C1875      C3686   1.480       .  S
O1876     Cr1892   2.027       .  S
O1877     Cr1892   1.989       .  S
O1877      C1878   1.264       .  A
C1878      O1879   1.268       .  A
C1878      C3709   1.476       .  S
O1879     Cr1893   2.004       .  S
O1880     Cr1893   1.974       .  S
O1880      C1881   1.260       .  A
C1881      C3729   1.480       .  S
O1882     Cr1891   1.985       .  S
O1882      C1890   1.261       .  A
O1883     Cr1891   2.030       .  S
O1883      C1884   1.270       .  A
C1884      O1885   1.258       .  A
C1884      C3736   1.483       .  S
O1885     Cr1892   1.971       .  S
O1886     Cr1892   1.997       .  S
O1886      C1887   1.264       .  A
C1887      O1888   1.263       .  A
C1887      C3716   1.464       .  S
O1888     Cr1893   1.992       .  S
O1889     Cr1893   2.017       .  S
O1889      C1890   1.265       .  A
C1890      C3699   1.496       .  S
Cr1891     O1894   1.769       .  S
Cr1892     O1894   1.777       .  S
Cr1893     O1894   1.777       .  S
O1895     Cr1913   1.962       .  S
O1895      C1903   1.265       .  A
O1896     Cr1913   1.988       .  S
O1896      C1897   1.260       .  A
C1897      O1898   1.265       .  A
C1897      C3636   1.484       .  S
O1898     Cr1914   2.013       .  S
O1899     Cr1914   2.001       .  S
O1899      C1900   1.264       .  A
C1900      O1901   1.262       .  A
C1900      C3679   1.486       .  S
O1901     Cr1915   1.996       .  S
O1902     Cr1915   2.024       .  S
O1902      C1903   1.273       .  A
C1903      C3646   1.474       .  S
O1904     Cr1913   1.987       .  S
O1904      C1912   1.256       .  A
O1905     Cr1913   1.991       .  S
O1905      C1906   1.266       .  A
C1906      O1907   1.267       .  A
C1906      C3659   1.466       .  S
O1907     Cr1914   2.004       .  S
O1908     Cr1914   1.968       .  S
O1908      C1909   1.261       .  A
C1909      O1910   1.268       .  A
C1909      C3666   1.477       .  S
O1910     Cr1915   2.015       .  S
O1911     Cr1915   2.015       .  S
O1911      C1912   1.262       .  A
C1912      C3696   1.492       .  S
Cr1913     O1916   1.764       .  S
Cr1914     O1916   1.771       .  S
Cr1915     O1916   1.777       .  S
O1917     Cr1935   2.022       .  S
O1917      C1925   1.269       .  A
O1918     Cr1935   1.974       .  S
O1918      C1919   1.255       .  A
C1919      O1920   1.262       .  A
C1919      C3576   1.474       .  S
O1920     Cr1936   2.015       .  S
O1921     Cr1936   1.989       .  S
O1921      C1922   1.266       .  A
C1922      O1923   1.271       .  A
C1922      C3626   1.480       .  S
O1923     Cr1937   2.010       .  S
O1924     Cr1937   1.966       .  S
O1924      C1925   1.259       .  A
C1925      C3589   1.481       .  S
O1926     Cr1935   1.964       .  S
O1926      C1934   1.256       .  A
O1927     Cr1935   2.039       .  S
O1927      C1928   1.273       .  A
C1928      O1929   1.259       .  A
C1928      C3599   1.481       .  S
O1929     Cr1936   1.956       .  S
O1930     Cr1936   1.985       .  S
O1930      C1931   1.263       .  A
C1931      O1932   1.260       .  A
C1931      C3606   1.466       .  S
O1932     Cr1937   1.997       .  S
O1933     Cr1937   2.014       .  S
O1933      C1934   1.266       .  A
C1934      C3619   1.481       .  S
Cr1935     O1938   1.770       .  S
Cr1936     O1938   1.772       .  S
Cr1937     O1938   1.770       .  S
O1939     Cr1957   2.007       .  S
O1939      C1947   1.266       .  A
O1940     Cr1957   1.969       .  S
O1940      C1941   1.256       .  A
C1941      O1942   1.266       .  A
C1941      C3539   1.474       .  S
O1942     Cr1958   2.023       .  S
O1943     Cr1958   1.982       .  S
O1943      C1944   1.263       .  A
C1944      O1945   1.268       .  A
C1944      C3546   1.471       .  S
O1945     Cr1959   2.000       .  S
O1946     Cr1959   1.982       .  S
O1946      C1947   1.260       .  A
C1947      C3556   1.486       .  S
O1948     Cr1957   1.969       .  S
O1948      C1956   1.260       .  A
O1949     Cr1957   2.026       .  S
O1949      C1950   1.269       .  A
C1950      O1951   1.258       .  A
C1950      C3569   1.475       .  S
O1951     Cr1958   1.969       .  S
O1952     Cr1958   1.993       .  S
O1952      C1953   1.262       .  A
C1953      O1954   1.261       .  A
C1953      C3669   1.464       .  S
O1954     Cr1959   1.991       .  S
O1955     Cr1959   2.010       .  S
O1955      C1956   1.266       .  A
C1956      C3616   1.477       .  S
Cr1957     O1960   1.768       .  S
Cr1958     O1960   1.774       .  S
Cr1959     O1960   1.770       .  S
O1961      C1969   1.266       .  A
O1962     Cr1979   2.007       .  S
O1962      C1963   1.265       .  A
C1963      O1964   1.264       .  A
C1963      C3486   1.477       .  S
O1964     Cr1980   2.000       .  S
O1965     Cr1980   2.003       .  S
O1965      C1966   1.263       .  A
C1966      O1967   1.259   1_556  A
O1967     Cr1981   1.986   1_554  S
O1968      C1969   1.274       .  A
C1969      C3516   1.478       .  S
O1970     Cr1979   1.985       .  S
O1970      C1978   1.259       .  A
O1971     Cr1979   1.995       .  S
O1971      C1972   1.264       .  A
C1972      O1973   1.264       .  A
C1972      C3529   1.473       .  S
O1973     Cr1980   2.006       .  S
O1974     Cr1980   1.969       .  S
O1974      C1975   1.261       .  A
C1975      O1976   1.269       .  A
C1975      C3719   1.478       .  S
O1976     Cr1981   2.019       .  S
O1977     Cr1981   2.001       .  S
O1977      C1978   1.260       .  A
C1978      C3496   1.485       .  S
Cr1979     O1982   1.766       .  S
Cr1980     O1982   1.771       .  S
Cr1981     O1982   1.777       .  S
O1983     Cr2001   2.027       .  S
O1983      C1991   1.272       .  A
O1984     Cr2001   1.972       .  S
O1984      C1985   1.258       .  A
C1985      O1986   1.261       .  A
C1985      C3449   1.469       .  S
O1986     Cr2002   2.004       .  S
O1987     Cr2002   1.992       .  S
O1987      C1988   1.264       .  A
C1988      O1989   1.265       .  A
C1988      C3456   1.474       .  S
O1989     Cr2003   1.992       .  S
O1990     Cr2003   1.973       .  S
O1990      C1991   1.263       .  A
C1991      C3466   1.486       .  S
O1992     Cr2001   1.972       .  S
O1992      C2000   1.256       .  A
O1993     Cr2001   2.019       .  S
C1994      O1995   1.258       .  A
C1994      C3476   1.478       .  S
O1996     Cr2002   1.992       .  S
O1996      C1997   1.264   1_556  A
C1997      O1998   1.266   1_554  A
O1998     Cr2003   2.000       .  S
O1999     Cr2003   2.014       .  S
O1999      C2000   1.261       .  A
C2000      C3499   1.488       .  S
Cr2001     O2004   1.774       .  S
Cr2002     O2004   1.776       .  S
Cr2003     O2004   1.776       .  S
O2005     Cr2023   1.975       .  S
O2005      C2013   1.254       .  A
O2006     Cr2023   2.029       .  S
O2006      C2007   1.274       .  A
C2007      O2008   1.261       .  A
C2007      C3416   1.481       .  S
O2008     Cr2024   1.956       .  S
O2009     Cr2024   1.991       .  S
O2009      C2010   1.265       .  A
C2010      O2011   1.266       .  A
C2010      C3446   1.480       .  S
O2011     Cr2025   1.995       .  S
O2012     Cr2025   2.021       .  S
O2012      C2013   1.263       .  A
C2013      C3396   1.480       .  S
O2014     Cr2023   2.033       .  S
O2014      C2022   1.273       .  A
O2015     Cr2023   1.969       .  S
O2015      C2016   1.253       .  A
C2016      O2017   1.259       .  A
C2016      C3406   1.478       .  S
O2017     Cr2024   2.000       .  S
O2018     Cr2024   1.993       .  S
O2018      C2019   1.264       .  A
C2019      O2020   1.267       .  A
C2019      C3436   1.467       .  S
O2020     Cr2025   2.006       .  S
O2021     Cr2025   1.938       .  S
O2021      C2022   1.256       .  A
C2022      C3426   1.487       .  S
Cr2023     O2026   1.776       .  S
Cr2024     O2026   1.773       .  S
Cr2025     O2026   1.775       .  S
O2027     Cr2045   1.975       .  S
O2027      C2035   1.256       .  A
O2028     Cr2045   2.005       .  S
O2028      C2029   1.266       .  A
C2029      O2030   1.261       .  A
C2029      C3356   1.487       .  S
O2030     Cr2046   1.980       .  S
O2031     Cr2046   1.999       .  S
O2031      C2032   1.268       .  A
C2032      O2033   1.266       .  A
C2032      C3386   1.474       .  S
O2033     Cr2047   1.987       .  S
O2034     Cr2047   2.014       .  S
O2034      C2035   1.262       .  A
C2035      C3346   1.467       .  S
O2036     Cr2045   2.022       .  S
O2036      C2044   1.269       .  A
O2037     Cr2045   1.968       .  S
O2037      C2038   1.258       .  A
C2038      O2039   1.264       .  A
C2038      C3409   1.474       .  S
O2039     Cr2046   2.006       .  S
O2040     Cr2046   1.999       .  S
O2040      C2041   1.262       .  A
C2041      O2042   1.260       .  A
C2041      C3379   1.467       .  S
O2042     Cr2047   1.989       .  S
O2043     Cr2047   1.970       .  S
O2043      C2044   1.260       .  A
C2044      C3366   1.476       .  S
Cr2045     O2048   1.771       .  S
Cr2046     O2048   1.771       .  S
Cr2047     O2048   1.773       .  S
O2049     Cr2067   2.000       .  S
O2049      C2057   1.264       .  A
O2050     Cr2067   1.978       .  S
O2050      C2051   1.266       .  A
C2051      O2052   1.272       .  A
C2051      C3526   1.474       .  S
O2052     Cr2068   2.016       .  S
O2053     Cr2068   1.988       .  S
O2053      C2054   1.261       .  A
C2054      O2055   1.265       .  A
C2054      C3336   1.488       .  S
O2055     Cr2069   2.008       .  S
O2056     Cr2069   2.000       .  S
O2056      C2057   1.263       .  A
C2057      C3706   1.477       .  S
O2058     Cr2067   1.994       .  S
O2058      C2066   1.263       .  A
O2059     Cr2067   1.978       .  S
O2059      C2060   1.257       .  A
C2060      O2061   1.262       .  A
C2060      C3329   1.489       .  S
O2061     Cr2068   2.011       .  S
O2062     Cr2068   2.013       .  S
O2062      C2063   1.268       .  A
C2063      O2064   1.259       .  A
C2063      C3316   1.473       .  S
O2064     Cr2069   1.968       .  S
O2065     Cr2069   2.009       .  S
O2065      C2066   1.265       .  A
C2066      C3519   1.470       .  S
Cr2067     O2070   1.766       .  S
Cr2068     O2070   1.776       .  S
Cr2069     O2070   1.772       .  S
O2071     Cr2089   1.992       .  S
O2071      C2079   1.262       .  A
O2072     Cr2089   1.975       .  S
O2072      C2073   1.266       .  A
C2073      O2074   1.273       .  A
C2073      C3479   1.483       .  S
O2074     Cr2090   2.021       .  S
O2075     Cr2090   1.978       .  S
O2075      C2076   1.259       .  A
C2076      O2077   1.266       .  A
C2076      C3306   1.498       .  S
O2077     Cr2091   2.021       .  S
O2078     Cr2091   2.007       .  S
O2078      C2079   1.264       .  A
C2079      C3629   1.484       .  S
O2080     Cr2089   2.001       .  S
O2080      C2088   1.267       .  A
O2081     Cr2089   1.982       .  S
O2081      C2082   1.257       .  A
C2082      O2083   1.260       .  A
C2082      C3326   1.490       .  S
O2083     Cr2090   2.006       .  S
O2084     Cr2090   2.019       .  S
O2084      C2085   1.269       .  A
C2085      O2086   1.260       .  A
C2085      C3439   1.478       .  S
O2086     Cr2091   1.965       .  S
O2087     Cr2091   2.015       .  S
O2087      C2088   1.270       .  A
C2088      C3469   1.486       .  S
Cr2089     O2092   1.768       .  S
Cr2090     O2092   1.779       .  S
Cr2091     O2092   1.774       .  S
O2093     Cr2111   2.006       .  S
O2093      C2101   1.266       .  A
O2094      C2095   1.265       .  A
C2095      O2096   1.274       .  A
C2095      C3286   1.483       .  S
O2097     Cr2112   1.986       .  S
O2097      C2098   1.262       .  A
C2098      O2099   1.263       .  A
O2099     Cr2113   2.006       .  S
O2100     Cr2113   2.002       .  S
O2100      C2101   1.263       .  A
C2101      C3266   1.486       .  S
O2102     Cr2111   1.991       .  S
O2102      C2110   1.263       .  A
O2103     Cr2111   1.991       .  S
O2103      C2104   1.260       .  A
C2104      O2105   1.262       .  A
C2104      C3276   1.486       .  S
O2105     Cr2112   2.007       .  S
O2106     Cr2112   2.010       .  S
O2106      C2107   1.267       .  A
C2107      O2108   1.260       .  A
C2107      C3319   1.469       .  S
O2108     Cr2113   1.968       .  S
O2109     Cr2113   2.005       .  S
O2109      C2110   1.266       .  A
C2110      C3296   1.475       .  S
Cr2111     O2114   1.765       .  S
Cr2112     O2114   1.779       .  S
Cr2113     O2114   1.773       .  S
O2115     Cr2133   2.012       .  S
O2115      C2123   1.264       .  A
O2116     Cr2133   1.951       .  S
O2116      C2117   1.263       .  A
C2117      O2118   1.274       .  A
C2117      C3246   1.485       .  S
O2118     Cr2134   2.029       .  S
O2119     Cr2134   1.995       .  S
O2119      C2120   1.260       .  A
C2120      O2121   1.262       .  A
C2120      C3239   1.490       .  S
O2121     Cr2135   2.003       .  S
O2122     Cr2135   2.004       .  S
O2122      C2123   1.265       .  A
C2123      C3226   1.484       .  S
O2124     Cr2133   1.989       .  S
O2125     Cr2133   1.989       .  S
O2125      C2126   1.259       .  A
C2126      O2127   1.261       .  A
C2126      C3279   1.497       .  S
O2127     Cr2134   2.011       .  S
O2128     Cr2134   2.024       .  S
O2128      C2129   1.271       .  A
C2129      O2130   1.262       .  A
O2130     Cr2135   1.963       .  S
O2131      C2132   1.268       .  A
C2132      C3259   1.477       .  S
Cr2133     O2136   1.768       .  S
Cr2134     O2136   1.780       .  S
Cr2135     O2136   1.767       .  S
O2137     Cr2155   2.024       .  S
O2137      C2145   1.272       .  A
O2138     Cr2155   1.976       .  S
O2138      C2139   1.256       .  A
C2139      O2140   1.260       .  A
C2139      C3389   1.468       .  S
O2140     Cr2156   2.005       .  S
O2141     Cr2156   1.989       .  S
O2141      C2142   1.263       .  A
C2142      O2143   1.267       .  A
C2142      C3206   1.482       .  S
O2143     Cr2157   2.000       .  S
O2144     Cr2157   1.970       .  S
O2144      C2145   1.263       .  A
C2145      C3256   1.484       .  S
O2146     Cr2155   1.977       .  S
O2146      C2154   1.257       .  A
O2147     Cr2155   2.028       .  S
O2147      C2148   1.271       .  A
C2148      O2149   1.259       .  A
C2148      C3249   1.484       .  S
O2149     Cr2156   1.945       .  S
O2150     Cr2156   2.005       .  S
O2150      C2151   1.266       .  A
C2151      O2152   1.265       .  A
C2151      C3216   1.474       .  S
O2152     Cr2157   2.001       .  S
O2153     Cr2157   2.006       .  S
O2153      C2154   1.261       .  A
C2154      C3196   1.488       .  S
Cr2155     O2158   1.779       .  S
Cr2156     O2158   1.777       .  S
Cr2157     O2158   1.772       .  S
O2159     Cr2177   2.017       .  S
O2159      C2167   1.268       .  A
O2160     Cr2177   1.968       .  S
O2160      C2161   1.253       .  A
C2161      O2162   1.265       .  A
C2161      C3339   1.476       .  S
O2162     Cr2178   2.026       .  S
O2163     Cr2178   1.983       .  S
O2163      C2164   1.264       .  A
C2164      O2165   1.270       .  A
C2164      C3186   1.472   1_455  S
O2165     Cr2179   2.015       .  S
O2166     Cr2179   1.967       .  S
O2166      C2167   1.259       .  A
C2167      C3299   1.482       .  S
O2168     Cr2177   1.965       .  S
O2168      C2176   1.257       .  A
O2169     Cr2177   2.036       .  S
O2169      C2170   1.272       .  A
C2170      O2171   1.258       .  A
C2170      C3289   1.479       .  S
O2171     Cr2178   1.956       .  S
O2172     Cr2178   2.000       .  S
O2172      C2173   1.265       .  A
C2173      O2174   1.263       .  A
C2173      C3176   1.471       .  S
O2174     Cr2179   1.996       .  S
O2175     Cr2179   2.023       .  S
O2175      C2176   1.268       .  A
C2176      C3199   1.479       .  S
Cr2177     O2180   1.773       .  S
Cr2178     O2180   1.772       .  S
Cr2179     O2180   1.771       .  S
O2181     Cr2199   1.953       .  S
O2181      C2189   1.262       .  A
O2182     Cr2199   1.993       .  S
O2182      C2183   1.262       .  A
C2183      O2184   1.265       .  A
C2183      C3119   1.482       .  S
O2184     Cr2200   2.009       .  S
O2185     Cr2200   1.998       .  S
O2185      C2186   1.262       .  A
C2186      O2187   1.262       .  A
C2186      C3166   1.492       .  S
O2187     Cr2201   1.994       .  S
O2188     Cr2201   2.016       .  S
O2188      C2189   1.272       .  A
C2189      C3139   1.468       .  S
O2190     Cr2199   1.986       .  S
O2190      C2198   1.257       .  A
O2191     Cr2199   1.986       .  S
O2191      C2192   1.264       .  A
C2192      O2193   1.265       .  A
C2192      C3146   1.470       .  S
O2193     Cr2200   1.991       .  S
O2194     Cr2200   1.968       .  S
O2194      C2195   1.261       .  A
C2195      O2196   1.268       .  A
C2195      C3126   1.477       .  S
O2196     Cr2201   2.011       .  S
O2197     Cr2201   2.002       .  S
O2197      C2198   1.260       .  A
C2198      C3156   1.488       .  S
Cr2199     O2202   1.770       .  S
Cr2200     O2202   1.769       .  S
Cr2201     O2202   1.779       .  S
O2203     Cr2221   1.951       .  S
O2203      C2211   1.263       .  A
O2204     Cr2221   2.003       .  S
O2204      C2205   1.260       .  A
C2205      O2206   1.261       .  A
C2205      C3086   1.478       .  S
O2206     Cr2222   2.003       .  S
O2207     Cr2222   2.009       .  S
O2207      C2208   1.265       .  A
C2208      O2209   1.259       .  A
C2208      C3229   1.495       .  S
O2209     Cr2223   1.981       .  S
O2210     Cr2223   2.035       .  S
O2210      C2211   1.277       .  A
C2211      C3096   1.482       .  S
O2212     Cr2221   1.986       .  S
O2212      C2220   1.257       .  A
O2213     Cr2221   1.975       .  S
O2213      C2214   1.262       .  A
C2214      O2215   1.272       .  A
C2214      C3109   1.463       .  S
O2215     Cr2222   2.018       .  S
O2216     Cr2222   1.958       .  S
O2216      C2217   1.260       .  A
C2217      O2218   1.273       .  A
C2217      C3219   1.483       .  S
O2218     Cr2223   2.034       .  S
O2219     Cr2223   2.004       .  S
O2219      C2220   1.259       .  A
C2220      C3159   1.490       .  S
Cr2221     O2224   1.768       .  S
Cr2222     O2224   1.766       .  S
Cr2223     O2224   1.775       .  S
O2225     Cr2243   2.014       .  S
O2225      C2233   1.268       .  A
O2226     Cr2243   1.966       .  S
O2226      C2227   1.253       .  A
C2227      O2228   1.264       .  A
C2227      C3036   1.468       .  S
O2228     Cr2244   2.021       .  S
O2229     Cr2244   1.985       .  S
O2229      C2230   1.265       .  A
C2230      O2231   1.271       .  A
C2230      C3056   1.473       .  S
O2231     Cr2245   2.007       .  S
O2232     Cr2245   1.977       .  S
O2232      C2233   1.260       .  A
C2233      C3066   1.490       .  S
O2234     Cr2243   1.966       .  S
O2234      C2242   1.258       .  A
O2235     Cr2243   2.032       .  S
C2236      O2237   1.259       .  A
C2236      C3076   1.481       .  S
O2238     Cr2244   1.995       .  S
O2238      C2239   1.262       .  A
C2239      O2240   1.263       .  A
O2240     Cr2245   1.996       .  S
O2241     Cr2245   2.027       .  S
O2241      C2242   1.269       .  A
C2242      C3049   1.487       .  S
Cr2243     O2246   1.768       .  S
Cr2244     O2246   1.775       .  S
Cr2245     O2246   1.769       .  S
O2247      C2255   1.270       .  A
O2248     Cr2265   1.976       .  S
O2248      C2249   1.257       .  A
C2249      O2250   1.267       .  A
C2249      C3006   1.487       .  S
O2250     Cr2266   2.031       .  S
O2251     Cr2266   2.002       .  S
O2251      C2252   1.267       .  A
C2252      O2253   1.267       .  A
O2253     Cr2267   2.001       .  S
O2254      C2255   1.263       .  A
C2255      C3016   1.485       .  S
O2256     Cr2265   1.977       .  S
O2256      C2264   1.259       .  A
O2257     Cr2265   2.025       .  S
O2257      C2258   1.268       .  A
C2258      O2259   1.258       .  A
C2258      C3026   1.474       .  S
O2259     Cr2266   1.969       .  S
O2260     Cr2266   1.999       .  S
O2260      C2261   1.266       .  A
C2261      O2262   1.264       .  A
C2261      C3179   1.472       .  S
O2262     Cr2267   1.994       .  S
O2263     Cr2267   2.017       .  S
O2263      C2264   1.265       .  A
C2264      C3046   1.487       .  S
Cr2265     O2268   1.773       .  S
Cr2266     O2268   1.778       .  S
Cr2267     O2268   1.779       .  S
O2269     Cr2287   1.975       .  S
O2269      C2277   1.255       .  A
O2270     Cr2287   2.019       .  S
O2270      C2271   1.271       .  A
C2271      O2272   1.260       .  A
C2271      C3029   1.491       .  S
O2272     Cr2288   1.975       .  S
O2273     Cr2288   1.990       .  S
O2273      C2274   1.266       .  A
C2274      O2275   1.266       .  A
C2274      C2996   1.476       .  S
O2275     Cr2289   1.995       .  S
O2276     Cr2289   2.019       .  S
O2276      C2277   1.263       .  A
C2277      C3189   1.478       .  S
O2278     Cr2287   2.034       .  S
O2278      C2286   1.272       .  A
O2279     Cr2287   1.980       .  S
O2279      C2280   1.260       .  A
C2280      O2281   1.263       .  A
C2280      C2986   1.485       .  S
O2281     Cr2288   2.007       .  S
O2282     Cr2288   1.992       .  S
O2282      C2283   1.262       .  A
C2283      O2284   1.265       .  A
C2283      C2976   1.465       .  S
O2284     Cr2289   1.999       .  S
O2285     Cr2289   1.961       .  S
O2285      C2286   1.260       .  A
C2286      C3019   1.483       .  S
Cr2287     O2290   1.771       .  S
Cr2288     O2290   1.771       .  S
Cr2289     O2290   1.777       .  S
O2291     Cr2309   1.974       .  S
O2291      C2299   1.255       .  A
O2292     Cr2309   2.009       .  S
O2292      C2293   1.268       .  A
C2293      O2294   1.262       .  A
C2293      C3079   1.490       .  S
O2294     Cr2310   1.986       .  S
O2295     Cr2310   2.011       .  S
O2295      C2296   1.269       .  A
C2296      O2297   1.264       .  A
C2296      C3579   1.469       .  S
O2297     Cr2311   1.983       .  S
O2298     Cr2311   2.028       .  S
O2298      C2299   1.266       .  A
C2299      C3169   1.478       .  S
O2300     Cr2309   2.028       .  S
O2300      C2308   1.269       .  A
O2301     Cr2309   1.968       .  S
O2301      C2302   1.258       .  A
C2302      O2303   1.269       .  A
C2302      C2989   1.488       .  S
O2303     Cr2310   2.028       .  S
O2304     Cr2310   2.002       .  S
O2304      C2305   1.265       .  A
C2305      O2306   1.263       .  A
C2305      C2966   1.471       .  S
O2306     Cr2311   1.995       .  S
O2307     Cr2311   1.964       .  S
O2307      C2308   1.257       .  A
C2308      C3069   1.471       .  S
Cr2309     O2312   1.768       .  S
Cr2310     O2312   1.775       .  S
Cr2311     O2312   1.772       .  S
O2313     Cr2331   1.995       .  S
O2313      C2321   1.263       .  A
O2314     Cr2331   1.965       .  S
O2314      C2315   1.264       .  A
C2315      O2316   1.274       .  A
C2315      C3596   1.483       .  S
O2316     Cr2332   2.028       .  S
O2317     Cr2332   1.979       .  S
O2317      C2318   1.257       .  A
C2318      O2319   1.262       .  A
C2318      C3039   1.481       .  S
O2319     Cr2333   1.998       .  S
O2320     Cr2333   1.998       .  S
O2320      C2321   1.262       .  A
C2321      C3459   1.479       .  S
O2322     Cr2331   1.996       .  S
O2322      C2330   1.266       .  A
O2323     Cr2331   1.987       .  S
O2323      C2324   1.258       .  A
C2324      O2325   1.259       .  A
C2324      C2956   1.485       .  S
O2325     Cr2332   2.002       .  S
O2326     Cr2332   2.027       .  S
O2326      C2327   1.271       .  A
C2327      O2328   1.260       .  A
C2327      C2969   1.485       .  S
O2328     Cr2333   1.964       .  S
O2329     Cr2333   2.003       .  S
O2329      C2330   1.266       .  A
C2330      C3586   1.477       .  S
Cr2331     O2334   1.765       .  S
Cr2332     O2334   1.775       .  S
Cr2333     O2334   1.769       .  S
O2335     Cr2353   1.968       .  S
O2335      C2343   1.256       .  A
O2336     Cr2353   2.019       .  S
O2336      C2337   1.271       .  A
C2337      O2338   1.261       .  A
C2337      C3566   1.488       .  S
O2338     Cr2354   1.971       .  S
O2339     Cr2354   2.011       .  S
O2339      C2340   1.267       .  A
C2340      O2341   1.264       .  A
C2340      C2946   1.473       .  S
O2341     Cr2355   1.989       .  S
O2342     Cr2355   2.032       .  S
O2342      C2343   1.268       .  A
C2343      C3676   1.482       .  S
O2344     Cr2353   2.032       .  S
O2344      C2352   1.270       .  A
O2345     Cr2353   1.968       .  S
O2345      C2346   1.257       .  A
C2346      O2347   1.266       .  A
C2346      C2959   1.490       .  S
O2347     Cr2354   2.025       .  S
O2348     Cr2354   1.992       .  S
O2348      C2349   1.264       .  A
C2349      O2350   1.266       .  A
C2349      C2936   1.468       .  S
O2350     Cr2355   2.003       .  S
O2351     Cr2355   1.958       .  S
O2351      C2352   1.257       .  A
C2352      C3559   1.482       .  S
Cr2353     O2356   1.769       .  S
Cr2354     O2356   1.777       .  S
Cr2355     O2356   1.770       .  S
O2357     Cr2375   2.008       .  S
O2357      C2365   1.267       .  A
O2358     Cr2375   1.965       .  S
O2358      C2359   1.262       .  A
C2359      O2360   1.270       .  A
C2359      C2916   1.482       .  S
O2360     Cr2376   2.016       .  S
O2361     Cr2376   1.979       .  S
O2361      C2362   1.258       .  A
C2362      O2363   1.264       .  A
C2362      C3536   1.483       .  S
O2363     Cr2377   2.008       .  S
O2364     Cr2377   1.993       .  S
O2364      C2365   1.263       .  A
C2365      C2896   1.477       .  S
O2366     Cr2375   1.991       .  S
O2367     Cr2375   1.995       .  S
O2367      C2368   1.262       .  A
C2368      O2369   1.259       .  A
C2368      C2906   1.485       .  S
O2369     Cr2376   1.988       .  S
O2370     Cr2376   2.020       .  S
O2370      C2371   1.269       .  A
C2371      O2372   1.260       .  A
O2372     Cr2377   1.962       .  S
O2373      C2374   1.267       .  A
C2374      C2926   1.469       .  S
Cr2375     O2378   1.761       .  S
Cr2376     O2378   1.772       .  S
Cr2377     O2378   1.765       .  S
O2379     Cr2397   1.998       .  S
O2379      C2387   1.263       .  A
O2380      C2381   1.264       .  A
C2381      O2382   1.272       .  A
C2381      C2879   1.469       .  S
O2383     Cr2398   1.995       .  S
O2383      C2384   1.262       .  A
C2384      O2385   1.261       .  A
O2385     Cr2399   1.989       .  S
O2386     Cr2399   2.004       .  S
O2386      C2387   1.265       .  A
C2387      C2866   1.481       .  S
O2388     Cr2397   1.995       .  S
O2388      C2396   1.265       .  A
O2389     Cr2397   1.983       .  S
O2389      C2390   1.258       .  A
C2390      O2391   1.259       .  A
C2390      C2909   1.475       .  S
O2391     Cr2398   1.997       .  S
O2392     Cr2398   2.016       .  S
O2392      C2393   1.268       .  A
C2393      O2394   1.261       .  A
C2393      C2979   1.475       .  S
O2394     Cr2399   1.968       .  S
O2395     Cr2399   1.988       .  S
O2395      C2396   1.264       .  A
C2396      C2886   1.474       .  S
Cr2397     O2400   1.770       .  S
Cr2398     O2400   1.781       .  S
Cr2399     O2400   1.764       .  S
O2401     Cr2419   2.008       .  S
O2401      C2409   1.264       .  A
O2402     Cr2419   1.967       .  S
O2402      C2403   1.265       .  A
C2403      O2404   1.271       .  A
C2403      C2836   1.463       .  S
O2404     Cr2420   2.009       .  S
O2405     Cr2420   1.987       .  S
O2405      C2406   1.260       .  A
C2406      O2407   1.265       .  A
C2406      C3689   1.489       .  S
O2407     Cr2421   2.010       .  S
O2408     Cr2421   2.005       .  S
O2408      C2409   1.264       .  A
C2409      C2816   1.481       .  S
O2410     Cr2419   1.985       .  S
O2410      C2418   1.263       .  A
O2411     Cr2419   1.991       .  S
O2411      C2412   1.258       .  A
C2412      O2413   1.260       .  A
C2412      C2826   1.486       .  S
O2413     Cr2420   2.005       .  S
O2414     Cr2420   2.015       .  S
O2414      C2415   1.268       .  A
C2415      O2416   1.261       .  A
C2415      C2856   1.483       .  S
O2416     Cr2421   1.970       .  S
O2417     Cr2421   2.013       .  S
O2417      C2418   1.268       .  A
C2418      C2846   1.468       .  S
Cr2419     O2422   1.772       .  S
Cr2420     O2422   1.774       .  S
Cr2421     O2422   1.772       .  S
O2423     Cr2441   1.986       .  S
O2423      C2431   1.258       .  A
O2424     Cr2441   2.024       .  S
O2424      C2425   1.271       .  A
C2425      O2426   1.260       .  A
C2425      C2796   1.480       .  S
O2426     Cr2442   1.950       .  S
O2427     Cr2442   2.012       .  S
O2427      C2428   1.270       .  A
C2428      O2429   1.263       .  A
C2428      C3116   1.477       .  S
O2429     Cr2443   1.983       .  S
O2430     Cr2443   2.016       .  S
O2430      C2431   1.263       .  A
C2431      C2776   1.480       .  S
O2432     Cr2441   2.030       .  S
O2432      C2440   1.271       .  A
O2433     Cr2441   1.982       .  S
O2433      C2434   1.259       .  A
C2434      O2435   1.263       .  A
C2434      C2829   1.491       .  S
O2435     Cr2442   2.013       .  S
O2436     Cr2442   1.985       .  S
O2436      C2437   1.260       .  A
C2437      O2438   1.264       .  A
C2437      C2786   1.462       .  S
O2438     Cr2443   2.002       .  S
O2439     Cr2443   1.945       .  S
O2439      C2440   1.256       .  A
C2440      C2806   1.484       .  S
Cr2441     O2444   1.772       .  S
Cr2442     O2444   1.770       .  S
Cr2443     O2444   1.775       .  S
O2445     Cr2463   1.966       .  S
O2445      C2453   1.254       .  A
O2446      C2447   1.269       .  A
C2447      O2448   1.260       .  A
C2447      C3739   1.490       .  S
O2449     Cr2464   2.008       .  S
O2449      C2450   1.270       .  A
C2450      O2451   1.266       .  A
O2451     Cr2465   1.992       .  S
O2452     Cr2465   2.022       .  S
O2452      C2453   1.264       .  A
C2453      C3506   1.475       .  S
O2454     Cr2463   2.033       .  S
O2454      C2462   1.272       .  A
O2455     Cr2463   1.972       .  S
O2455      C2456   1.257       .  A
C2456      O2457   1.266       .  A
C2456      C2759   1.494       .  S
O2457     Cr2464   2.025       .  S
O2458     Cr2464   1.999       .  S
O2458      C2459   1.265       .  A
C2459      O2460   1.263       .  A
C2459      C2859   1.467       .  S
O2460     Cr2465   1.991       .  S
O2461     Cr2465   1.963       .  S
O2461      C2462   1.258       .  A
C2462      C3726   1.488       .  S
Cr2463     O2466   1.769       .  S
Cr2464     O2466   1.774       .  S
Cr2465     O2466   1.776       .  S
O2467     Cr2485   1.997       .  S
O2467      C2475   1.264       .  A
O2468     Cr2485   1.972       .  S
O2468      C2469   1.265       .  A
C2469      O2470   1.271       .  A
C2469      C3656   1.467       .  S
O2470     Cr2486   2.009       .  S
O2471     Cr2486   1.984       .  S
O2471      C2472   1.259       .  A
C2472      O2473   1.261       .  A
C2472      C3089   1.489       .  S
O2473     Cr2487   1.999       .  S
O2474     Cr2487   1.998       .  S
O2474      C2475   1.263       .  A
C2475      C3549   1.474       .  S
O2476     Cr2485   1.995       .  S
O2477     Cr2485   1.987       .  S
O2477      C2478   1.258       .  A
C2478      O2479   1.261       .  A
C2478      C2756   1.490       .  S
O2479     Cr2486   2.002       .  S
O2480     Cr2486   2.021       .  S
O2480      C2481   1.270       .  A
C2481      O2482   1.261       .  A
O2482     Cr2487   1.969       .  S
O2483      C2484   1.265       .  A
C2484      C3649   1.475       .  S
Cr2485     O2488   1.774       .  S
Cr2486     O2488   1.775       .  S
Cr2487     O2488   1.774       .  S
O2489     Cr2507   2.008       .  S
O2489      C2497   1.266       .  A
O2490     Cr2507   1.941       .  S
O2490      C2491   1.260       .  A
C2491      O2492   1.275       .  A
C2491      C3149   1.473       .  S
O2492     Cr2508   2.028       .  S
O2493     Cr2508   1.996       .  S
O2493      C2494   1.263       .  A
C2494      O2495   1.260       .  A
C2494      C2736   1.497       .  S
O2495     Cr2509   1.999       .  S
O2496     Cr2509   1.993       .  S
O2496      C2497   1.261       .  A
C2497      C3059   1.477       .  S
O2498     Cr2507   1.977       .  S
O2498      C2506   1.262       .  A
O2499     Cr2507   1.998       .  S
O2499      C2500   1.260       .  A
C2500      O2501   1.261       .  A
C2500      C2726   1.497       .  S
O2501     Cr2508   2.010       .  S
O2502     Cr2508   2.026       .  S
O2502      C2503   1.272       .  A
C2503      O2504   1.258       .  A
C2503      C2789   1.475       .  S
O2504     Cr2509   1.951       .  S
O2505     Cr2509   1.996       .  S
O2505      C2506   1.265       .  A
C2506      C3136   1.462       .  S
Cr2507     O2510   1.772       .  S
Cr2508     O2510   1.778       .  S
Cr2509     O2510   1.772       .  S
O2511     Cr2529   1.970       .  S
O2511      C2519   1.257       .  A
O2512     Cr2529   2.022       .  S
O2512      C2513   1.272       .  A
C2513      O2514   1.261       .  A
C2513      C3106   1.482       .  S
O2514     Cr2530   1.957       .  S
O2515     Cr2530   2.011       .  S
O2515      C2516   1.269       .  A
C2516      O2517   1.260       .  A
C2516      C3639   1.479       .  S
O2517     Cr2531   1.983       .  S
O2518     Cr2531   2.010       .  S
O2518      C2519   1.262       .  A
C2519      C3209   1.472       .  S
O2520     Cr2529   2.019       .  S
O2520      C2528   1.269       .  A
O2521     Cr2529   1.981       .  S
O2521      C2522   1.258       .  A
C2522      O2523   1.264       .  A
C2522      C2729   1.501       .  S
O2523     Cr2530   2.027       .  S
O2524     Cr2530   1.989       .  S
O2524      C2525   1.264       .  A
C2525      O2526   1.266       .  A
C2525      C2746   1.464       .  S
O2526     Cr2531   2.001       .  S
O2527     Cr2531   1.956       .  S
O2527      C2528   1.258       .  A
C2528      C3099   1.483       .  S
Cr2529     O2532   1.774       .  S
Cr2530     O2532   1.776       .  S
Cr2531     O2532   1.779       .  S
O2533     Cr2551   1.958       .  S
O2533      C2541   1.262       .  A
O2534     Cr2551   1.999       .  S
O2534      C2535   1.264       .  A
C2535      O2536   1.262       .  A
C2535      C2999   1.480       .  S
O2536     Cr2552   1.995       .  S
O2537     Cr2552   2.013       .  S
O2537      C2538   1.265       .  A
C2538      O2539   1.262       .  A
C2538      C2819   1.494       .  S
O2539     Cr2553   1.986       .  S
O2540     Cr2553   2.023       .  S
O2540      C2541   1.270       .  A
C2541      C2889   1.465       .  S
O2542     Cr2551   1.987       .  S
O2542      C2550   1.260       .  A
O2543     Cr2551   1.980       .  S
O2543      C2544   1.262       .  A
C2544      O2545   1.267       .  A
C2544      C2876   1.462       .  S
O2545     Cr2552   2.010       .  S
O2546     Cr2552   1.968       .  S
O2546      C2547   1.259       .  A
C2547      O2548   1.268       .  A
C2547      C2706   1.468       .  S
O2548     Cr2553   2.015       .  S
O2549     Cr2553   2.007       .  S
O2549      C2550   1.262       .  A
C2550      C2719   1.488       .  S
Cr2551     O2554   1.762       .  S
Cr2552     O2554   1.769       .  S
Cr2553     O2554   1.772       .  S
O2555     Cr2573   2.020       .  S
O2555      C2563   1.270       .  A
O2556     Cr2573   1.973       .  S
O2556      C2557   1.256       .  A
C2557      O2558   1.265       .  A
C2557      C2949   1.480       .  S
O2558     Cr2574   2.024       .  S
O2559     Cr2574   1.978       .  S
O2559      C2560   1.263       .  A
C2560      O2561   1.268       .  A
C2560      C3349   1.469       .  S
O2561     Cr2575   2.008       .  S
O2562     Cr2575   1.964       .  S
O2562      C2563   1.262       .  A
C2563      C2929   1.486       .  S
O2564     Cr2573   1.973       .  S
O2564      C2572   1.258       .  A
O2565     Cr2573   2.028       .  S
O2565      C2566   1.270       .  A
C2566      O2567   1.256       .  A
C2566      C2919   1.476       .  S
O2567     Cr2574   1.949       .  S
O2568     Cr2574   2.002       .  S
O2568      C2569   1.265       .  A
C2569      O2570   1.264       .  A
C2569      C2696   1.470       .  S
O2570     Cr2575   1.996       .  S
O2571     Cr2575   2.018       .  S
O2571      C2572   1.263       .  A
C2572      C2716   1.492       .  S
Cr2573     O2576   1.767       .  S
Cr2574     O2576   1.773       .  S
Cr2575     O2576   1.771       .  S
O2577     Cr2595   1.954       .  S
O2577      C2585   1.263       .  A
O2578     Cr2595   2.009       .  S
O2578      C2579   1.264       .  A
C2579      O2580   1.265       .  A
C2579      C3309   1.487       .  S
O2580     Cr2596   2.012       .  S
O2581     Cr2596   2.009       .  S
O2581      C2582   1.264       .  A
C2582      O2583   1.260       .  A
C2582      C2779   1.489       .  S
O2583     Cr2597   1.989       .  S
O2584     Cr2597   2.029       .  S
O2584      C2585   1.273       .  A
C2585      C3429   1.482       .  S
O2586     Cr2595   1.994       .  S
O2586      C2594   1.259       .  A
O2587     Cr2595   1.988       .  S
O2587      C2588   1.264       .  A
C2588      O2589   1.268       .  A
C2588      C3419   1.470       .  S
O2589     Cr2596   2.015       .  S
O2590     Cr2596   1.977       .  S
O2590      C2591   1.263       .  A
C2591      O2592   1.271       .  A
C2591      C2679   1.482       .  S
O2592     Cr2597   2.021       .  S
O2593     Cr2597   2.008       .  S
O2593      C2594   1.261       .  A
C2594      C2686   1.488       .  S
Cr2595     O2598   1.767       .  S
Cr2596     O2598   1.769       .  S
Cr2597     O2598   1.776       .  S
O2599     Cr2617   2.010       .  S
O2599      C2607   1.269       .  A
O2600     Cr2617   1.977       .  S
O2600      C2601   1.258       .  A
C2601      O2602   1.267       .  A
C2601      C3236   1.484       .  S
O2602     Cr2618   2.030       .  S
O2603     Cr2618   1.991       .  S
O2603      C2604   1.265       .  A
C2604      O2605   1.267       .  A
C2604      C2899   1.473       .  S
O2605     Cr2619   1.996       .  S
O2606     Cr2619   1.979       .  S
O2606      C2607   1.261       .  A
C2607      C3369   1.486       .  S
O2608     Cr2617   1.982       .  S
O2608      C2616   1.260       .  A
O2609     Cr2617   2.020       .  S
O2609      C2610   1.268       .  A
C2610      O2611   1.259       .  A
C2610      C3359   1.474       .  S
O2611     Cr2618   1.970       .  S
O2612     Cr2618   1.999       .  S
O2612      C2613   1.264       .  A
C2613      O2614   1.264       .  A
C2613      C2699   1.470       .  S
O2614     Cr2619   1.997       .  S
O2615     Cr2619   2.021       .  S
O2615      C2616   1.266       .  A
C2616      C2689   1.493       .  S
Cr2617     O2620   1.768       .  S
Cr2618     O2620   1.775       .  S
Cr2619     O2620   1.775       .  S
O2621      C2629   1.265       .  A
O2622     Cr2639   2.009       .  S
O2622      C2623   1.267       .  A
C2623      O2624   1.262       .  A
C2623      C2766   1.476       .  S
O2624     Cr2640   1.991       .  S
O2625     Cr2640   2.010       .  S
O2625      C2626   1.263       .  A
C2626      O2627   1.260   1_556  A
O2627     Cr2641   1.979   1_554  S
O2628      C2629   1.269       .  A
C2629      C2849   1.475       .  S
O2630     Cr2639   1.994       .  S
O2630      C2638   1.261       .  A
O2631     Cr2639   1.985       .  S
O2631      C2632   1.262       .  A
C2632      O2633   1.264       .  A
C2632      C2839   1.464       .  S
O2633     Cr2640   2.005       .  S
O2634     Cr2640   1.967       .  S
O2634      C2635   1.259       .  A
C2635      O2636   1.269       .  A
C2635      C2709   1.477       .  S
O2636     Cr2641   2.016       .  S
O2637     Cr2641   2.000       .  S
O2637      C2638   1.260       .  A
C2638      C2666   1.490       .  S
Cr2639     O2642   1.769       .  S
Cr2640     O2642   1.773       .  S
Cr2641     O2642   1.769       .  S
O2643     Cr2661   1.955       .  S
O2643      C2651   1.264       .  A
O2644     Cr2661   2.007       .  S
O2644      C2645   1.264       .  A
C2645      O2646   1.266       .  A
C2645      C2739   1.486       .  S
O2646     Cr2662   2.008       .  S
O2647     Cr2662   2.004       .  S
O2647      C2648   1.264       .  A
C2648      O2649   1.262       .  A
C2648      C3399   1.494       .  S
O2649     Cr2663   1.994       .  S
O2650     Cr2663   2.026       .  S
O2650      C2651   1.273       .  A
C2651      C2809   1.483       .  S
O2652     Cr2661   1.983       .  S
O2652      C2660   1.256       .  A
O2653     Cr2661   1.987       .  S
C2654      O2655   1.268       .  A
C2654      C2799   1.464       .  S
C2657      O2658   1.270       .  A
O2658     Cr2663   2.017       .  S
O2659     Cr2663   2.006       .  S
O2659      C2660   1.260       .  A
C2660      C2669   1.479       .  S
Cr2661     O2664   1.767       .  S
Cr2662     O2664   1.767       .  S
Cr2663     O2664   1.781       .  S
C2665      C2666   1.406       .  A
C2665      C2670   1.393       .  A
C2665      H2672   1.083       .  S
C2666      C2667   1.412       .  A
C2667      C2668   1.411       .  A
C2667      F2674   1.357       .  S
C2668      C2669   1.406       .  A
C2668      H2673   1.083       .  S
C2669      C2670   1.404       .  A
C2670      F2671   1.358       .  S
C2675      C2676   1.406       .  A
C2675      C2680   1.401       .  A
C2675      H2682   1.084       .  S
C2676      C2677   1.408       .  A
C2677      C2678   1.401       .  A
C2677      F2684   1.357       .  S
C2678      C2679   1.405       .  A
C2678      H2683   1.083       .  S
C2679      C2680   1.408       .  A
C2680      F2681   1.358       .  S
C2685      C2686   1.406       .  A
C2685      C2690   1.409   1_545  A
C2685      H2692   1.083       .  S
C2686      C2687   1.409       .  A
C2687      C2688   1.398   1_545  A
C2687      F2694   1.358       .  S
C2688      C2689   1.405       .  A
C2688      H2693   1.083       .  S
C2689      C2690   1.413       .  A
C2690      F2691   1.357       .  S
C2695      C2696   1.405       .  A
C2695      C2700   1.406       .  A
C2695      H2702   1.083       .  S
C2696      C2697   1.403       .  A
C2697      C2698   1.394       .  A
C2697      F2704   1.358       .  S
C2698      C2699   1.401       .  A
C2698      H2703   1.082       .  S
C2699      C2700   1.406       .  A
C2700      F2701   1.357       .  S
C2705      C2706   1.402   1_545  A
C2705      C2710   1.397       .  A
C2705      H2712   1.084       .  S
C2706      C2707   1.404       .  A
C2707      C2708   1.398   1_565  A
C2707      F2714   1.358       .  S
C2708      C2709   1.405       .  A
C2708      H2713   1.083   1_545  S
C2709      C2710   1.409       .  A
C2710      F2711   1.358       .  S
C2715      C2716   1.413       .  A
C2715      C2720   1.411       .  A
C2715      H2722   1.083       .  S
C2716      C2717   1.407       .  A
C2717      C2718   1.391       .  A
C2717      F2724   1.358       .  S
C2718      C2719   1.405       .  A
C2718      H2723   1.084       .  S
C2719      C2720   1.408       .  A
C2720      F2721   1.357       .  S
C2725      C2726   1.408       .  A
C2725      C2730   1.413   1_655  A
C2725      H2732   1.083       .  S
C2726      C2727   1.410       .  A
C2727      C2728   1.398   1_655  A
C2727      F2734   1.358       .  S
C2728      C2729   1.406       .  A
C2728      H2733   1.083       .  S
C2729      C2730   1.415       .  A
C2730      F2731   1.357       .  S
C2735      C2736   1.405       .  A
C2735      C2740   1.400       .  A
C2735      H2742   1.083       .  S
C2736      C2737   1.417       .  A
C2737      C2738   1.407       .  A
C2737      F2744   1.357       .  S
C2738      C2739   1.402       .  A
C2738      H2743   1.083       .  S
C2739      C2740   1.408       .  A
C2740      F2741   1.357       .  S
C2745      C2746   1.401       .  A
C2745      C2750   1.396       .  A
C2745      H2752   1.084       .  S
C2746      C2747   1.404       .  A
C2747      C2748   1.401       .  A
C2747      F2754   1.357       .  S
C2748      C2749   1.405       .  A
C2748      H2753   1.083   1_556  S
C2749      C2750   1.407       .  A
C2750      F2751   1.357       .  S
C2755      C2756   1.406       .  A
C2755      C2760   1.409       .  A
C2755      H2762   1.083       .  S
C2756      C2757   1.411       .  A
C2757      C2758   1.395       .  A
C2757      F2764   1.358       .  S
C2758      C2759   1.405       .  A
C2758      H2763   1.083       .  S
C2759      C2760   1.413       .  A
C2760      F2761   1.357       .  S
C2765      C2766   1.405   1_554  A
C2765      C2770   1.406       .  A
C2765      H2772   1.083       .  S
C2766      C2767   1.406       .  A
C2768      H2773   1.084   1_655  S
C2769      C2770   1.408   1_456  A
C2770      F2771   1.357       .  S
C2775      C2776   1.405       .  A
C2775      C2780   1.405       .  A
C2775      H2782   1.083       .  S
C2776      C2777   1.404       .  A
C2777      C2778   1.401       .  A
C2777      F2784   1.358       .  S
C2778      C2779   1.409       .  A
C2778      H2783   1.083       .  S
C2779      C2780   1.409       .  A
C2780      F2781   1.357       .  S
C2785      C2786   1.403       .  A
C2785      C2790   1.402       .  A
C2785      H2792   1.083       .  S
C2786      C2787   1.400       .  A
C2787      C2788   1.392       .  A
C2787      F2794   1.359       .  S
C2788      C2789   1.406       .  A
C2788      H2793   1.083       .  S
C2789      C2790   1.407       .  A
C2790      F2791   1.357       .  S
C2795      C2796   1.406       .  A
C2795      C2800   1.388       .  A
C2795      H2802   1.083       .  S
C2796      C2797   1.411       .  A
C2797      C2798   1.403       .  A
C2797      F2804   1.357       .  S
C2798      C2799   1.403       .  A
C2798      H2803   1.083       .  S
C2799      C2800   1.400       .  A
C2800      F2801   1.357       .  S
C2805      C2806   1.407       .  A
C2805      C2810   1.407       .  A
C2805      H2812   1.083       .  S
C2806      C2807   1.411       .  A
C2807      C2808   1.386       .  A
C2807      F2814   1.358       .  S
C2808      C2809   1.402       .  A
C2808      H2813   1.084       .  S
C2809      C2810   1.411       .  A
C2810      F2811   1.357       .  S
C2815      C2816   1.404       .  A
C2815      C2820   1.399       .  A
C2815      H2822   1.084       .  S
C2816      C2817   1.404       .  A
C2817      C2818   1.407       .  A
C2817      F2824   1.357       .  S
C2818      C2819   1.412   1_545  A
C2818      H2823   1.083       .  S
C2819      C2820   1.409   1_565  A
C2820      F2821   1.357   1_545  S
C2825      C2826   1.407       .  A
C2825      C2830   1.397       .  A
C2825      H2832   1.084       .  S
C2826      C2827   1.406       .  A
C2827      C2828   1.407       .  A
C2827      F2834   1.357       .  S
C2828      C2829   1.411       .  A
C2828      H2833   1.083       .  S
C2829      C2830   1.408       .  A
C2830      F2831   1.358       .  S
C2835      C2836   1.401       .  A
C2835      C2840   1.394       .  A
C2835      H2842   1.083       .  S
C2836      C2837   1.404       .  A
C2837      C2838   1.398       .  A
C2837      F2844   1.357       .  S
C2838      C2839   1.403       .  A
C2838      H2843   1.084       .  S
C2839      C2840   1.404       .  A
C2840      F2841   1.357       .  S
C2845      C2846   1.401       .  A
C2845      C2850   1.398       .  A
C2845      H2852   1.084       .  S
C2846      C2847   1.404       .  A
C2847      C2848   1.400       .  A
C2847      F2854   1.357       .  S
C2848      C2849   1.404       .  A
C2848      H2853   1.083       .  S
C2849      C2850   1.408       .  A
C2850      F2851   1.358       .  S
C2855      C2856   1.409       .  A
C2855      C2860   1.405   1_655  A
C2855      H2862   1.083   1_655  S
C2856      C2857   1.408       .  A
C2857      C2858   1.392       .  A
C2857      F2864   1.357       .  S
C2858      C2859   1.400   1_655  A
C2858      H2863   1.084       .  S
C2859      C2860   1.404       .  A
C2860      F2861   1.356       .  S
C2865      C2870   1.406       .  A
C2865      H2872   1.083       .  S
C2866      C2867   1.408       .  A
C2867      C2868   1.395       .  A
C2867      F2874   1.358       .  S
C2868      C2869   1.404   1_565  A
C2868      H2873   1.083   1_565  S
C2870      F2871   1.357       .  S
C2875      C2876   1.400       .  A
C2875      C2880   1.397       .  A
C2875      H2882   1.084       .  S
C2876      C2877   1.403       .  A
C2877      C2878   1.396       .  A
C2877      F2884   1.357       .  S
C2878      C2879   1.403       .  A
C2878      H2883   1.084       .  S
C2879      C2880   1.407       .  A
C2880      F2881   1.358       .  S
C2885      C2886   1.405       .  A
C2885      C2890   1.386       .  A
C2885      H2892   1.084       .  S
C2886      C2887   1.407       .  A
C2887      C2888   1.405       .  A
C2887      F2894   1.357       .  S
C2888      C2889   1.406       .  A
C2888      H2893   1.083       .  S
C2889      C2890   1.400       .  A
C2890      F2891   1.359       .  S
C2895      C2896   1.405       .  A
C2895      C2900   1.406       .  A
C2895      H2902   1.083       .  S
C2896      C2897   1.406       .  A
C2897      C2898   1.392       .  A
C2897      F2904   1.356       .  S
C2898      C2899   1.401       .  A
C2898      H2903   1.084       .  S
C2899      C2900   1.407       .  A
C2900      F2901   1.357       .  S
C2905      C2906   1.405       .  A
C2905      C2910   1.391       .  A
C2905      H2912   1.083       .  S
C2906      C2907   1.412       .  A
C2907      C2908   1.407       .  A
C2907      F2914   1.357       .  S
C2908      C2909   1.405       .  A
C2908      H2913   1.083       .  S
C2909      C2910   1.403       .  A
C2910      F2911   1.358       .  S
C2915      C2916   1.410       .  A
C2915      C2920   1.403       .  A
C2915      H2922   1.083       .  S
C2916      C2917   1.408       .  A
C2917      C2918   1.390       .  A
C2917      F2924   1.358       .  S
C2918      C2919   1.404       .  A
C2918      H2923   1.083       .  S
C2919      C2920   1.404       .  A
C2920      F2921   1.357       .  S
C2925      C2926   1.403       .  A
C2925      C2930   1.405       .  A
C2925      H2932   1.083       .  S
C2926      C2927   1.399       .  A
C2927      C2928   1.392       .  A
C2927      F2934   1.355       .  S
C2928      C2929   1.407       .  A
C2928      H2933   1.083       .  S
C2929      C2930   1.413       .  A
C2930      F2931   1.357       .  S
C2935      C2936   1.402       .  A
C2935      C2940   1.402       .  A
C2935      H2942   1.082       .  S
C2936      C2937   1.402       .  A
C2937      C2938   1.398       .  A
C2937      F2944   1.358       .  S
C2938      C2939   1.406       .  A
C2938      H2943   1.084       .  S
C2939      C2940   1.408       .  A
C2945      C2946   1.403       .  A
C2945      C2950   1.406       .  A
C2945      H2952   1.083       .  S
C2946      C2947   1.405       .  A
C2947      C2948   1.397       .  A
C2947      F2954   1.358       .  S
C2948      C2949   1.403       .  A
C2948      H2953   1.084       .  S
C2949      C2950   1.409       .  A
C2950      F2951   1.357       .  S
C2955      C2956   1.404       .  A
C2955      C2960   1.393       .  A
C2955      H2962   1.084       .  S
C2956      C2957   1.408       .  A
C2957      C2958   1.408       .  A
C2957      F2964   1.357       .  S
C2958      C2959   1.410       .  A
C2958      H2963   1.083       .  S
C2959      C2960   1.409       .  A
C2960      F2961   1.358       .  S
C2965      C2966   1.400       .  A
C2965      C2970   1.395       .  A
C2965      H2972   1.084       .  S
C2966      C2967   1.405       .  A
C2967      C2968   1.405       .  A
C2967      F2974   1.356       .  S
C2968      C2969   1.407       .  A
C2968      H2973   1.083       .  S
C2969      C2970   1.410       .  A
C2970      F2971   1.358       .  S
C2975      C2976   1.400       .  A
C2975      C2980   1.394       .  A
C2975      H2982   1.084       .  S
C2976      C2977   1.404       .  A
C2977      C2978   1.402       .  A
C2977      F2984   1.356       .  S
C2978      C2979   1.406       .  A
C2978      H2983   1.083       .  S
C2979      C2980   1.407       .  A
C2980      F2981   1.358       .  S
C2985      C2986   1.402       .  A
C2985      C2990   1.396       .  A
C2985      H2992   1.083       .  S
C2986      C2987   1.410       .  A
C2987      C2988   1.407       .  A
C2987      F2994   1.357       .  S
C2988      C2989   1.407       .  A
C2988      H2993   1.083       .  S
C2989      C2990   1.410       .  A
C2990      F2991   1.358       .  S
C2995      C2996   1.402       .  A
C2995      C3000   1.388       .  A
C2995      H3002   1.084       .  S
C2996      C2997   1.407       .  A
C2997      C2998   1.408       .  A
C2997      F3004   1.357       .  S
C2998      C2999   1.408       .  A
C2998      H3003   1.083       .  S
C2999      C3000   1.407       .  A
C3000      F3001   1.358       .  S
C3005      C3006   1.408       .  A
C3005      C3010   1.409       .  A
C3005      H3012   1.083       .  S
C3007      C3008   1.397       .  A
C3007      F3014   1.358       .  S
C3008      H3013   1.083       .  S
C3009      C3010   1.408   1_554  A
C3010      F3011   1.357       .  S
C3015      C3016   1.410       .  A
C3015      C3020   1.408       .  A
C3015      H3022   1.083       .  S
C3016      C3017   1.407       .  A
C3017      C3018   1.393       .  A
C3017      F3024   1.358       .  S
C3018      C3019   1.403       .  A
C3018      H3023   1.081       .  S
C3019      C3020   1.407       .  A
C3020      F3021   1.357       .  S
C3025      C3026   1.400       .  A
C3025      C3030   1.403       .  A
C3025      H3032   1.083       .  S
C3026      C3027   1.404       .  A
C3027      C3028   1.400       .  A
C3027      F3034   1.358       .  S
C3028      C3029   1.406       .  A
C3028      H3033   1.083       .  S
C3029      C3030   1.415       .  A
C3030      F3031   1.358       .  S
C3035      C3036   1.402       .  A
C3035      C3040   1.401       .  A
C3035      H3042   1.083       .  S
C3036      C3037   1.402       .  A
C3037      C3038   1.396       .  A
C3037      F3044   1.358       .  S
C3038      C3039   1.406       .  A
C3038      H3043   1.083       .  S
C3039      C3040   1.410       .  A
C3040      F3041   1.357       .  S
C3045      C3046   1.409       .  A
C3045      C3050   1.408       .  A
C3045      H3052   1.083       .  S
C3046      C3047   1.407       .  A
C3047      C3048   1.396       .  A
C3048      C3049   1.406       .  A
C3049      C3050   1.409       .  A
C3050      F3051   1.357       .  S
C3055      C3056   1.400       .  A
C3055      C3060   1.392       .  A
C3055      H3062   1.084       .  S
C3056      C3057   1.409       .  A
C3057      C3058   1.407       .  A
C3057      F3064   1.357       .  S
C3058      C3059   1.405       .  A
C3058      H3063   1.083       .  S
C3059      C3060   1.406       .  A
C3060      F3061   1.358       .  S
C3065      C3066   1.407       .  A
C3065      C3070   1.398       .  A
C3065      H3072   1.083       .  S
C3066      C3067   1.415       .  A
C3067      C3068   1.402       .  A
C3067      F3074   1.357       .  S
C3068      C3069   1.400       .  A
C3068      H3073   1.083       .  S
C3069      C3070   1.403       .  A
C3070      F3071   1.357       .  S
C3075      C3076   1.405       .  A
C3075      C3080   1.407       .  A
C3075      H3082   1.083       .  S
C3076      C3077   1.405       .  A
C3077      C3078   1.396       .  A
C3077      F3084   1.358       .  S
C3078      C3079   1.406       .  A
C3078      H3083   1.083       .  S
C3079      C3080   1.413       .  A
C3080      F3081   1.357       .  S
C3085      C3086   1.405       .  A
C3085      C3090   1.398       .  A
C3085      H3092   1.083       .  S
C3086      C3087   1.403       .  A
C3087      C3088   1.403       .  A
C3087      F3094   1.357       .  S
C3088      C3089   1.411       .  A
C3088      H3093   1.083       .  S
C3089      C3090   1.408       .  A
C3090      F3091   1.358       .  S
C3095      C3096   1.405       .  A
C3095      H3102   1.084       .  S
C3097      C3098   1.404       .  A
C3098      C3099   1.408       .  A
C3098      H3103   1.083       .  S
C3099      C3100   1.410       .  A
C3100      F3101   1.358       .  S
C3105      C3106   1.408       .  A
C3105      C3110   1.391       .  A
C3105      H3112   1.083       .  S
C3106      C3107   1.411       .  A
C3107      C3108   1.402       .  A
C3107      F3114   1.357       .  S
C3108      C3109   1.402       .  A
C3108      H3113   1.083       .  S
C3109      C3110   1.399       .  A
C3110      F3111   1.358       .  S
C3115      C3116   1.409       .  A
C3115      C3120   1.409       .  A
C3115      H3122   1.083       .  S
C3116      C3117   1.401       .  A
C3117      C3118   1.393       .  A
C3117      F3124   1.358       .  S
C3118      C3119   1.407       .  A
C3118      H3123   1.084       .  S
C3119      C3120   1.406       .  A
C3120      F3121   1.357       .  S
C3125      C3126   1.405       .  A
C3125      C3130   1.393       .  A
C3125      H3132   1.084       .  S
C3126      C3127   1.409       .  A
C3127      C3128   1.402       .  A
C3127      F3134   1.357       .  S
C3128      C3129   1.401       .  A
C3128      H3133   1.083       .  S
C3129      C3130   1.403       .  A
C3130      F3131   1.359       .  S
C3135      C3136   1.400       .  A
C3135      C3140   1.386       .  A
C3135      H3142   1.084       .  S
C3136      C3137   1.404       .  A
C3137      C3138   1.400       .  A
C3137      F3144   1.357       .  S
C3138      C3139   1.406       .  A
C3138      H3143   1.083       .  S
C3139      C3140   1.406       .  A
C3140      F3141   1.358       .  S
C3145      C3146   1.404       .  A
C3145      H3152   1.084       .  S
C3146      C3147   1.407       .  A
C3147      F3154   1.357       .  S
C3148      C3149   1.408       .  A
C3148      H3153   1.083       .  S
C3149      C3150   1.408       .  A
C3150      F3151   1.359       .  S
C3155      C3156   1.408       .  A
C3155      C3160   1.409   1_655  A
C3155      H3162   1.083       .  S
C3156      C3157   1.409       .  A
C3157      C3158   1.393   1_655  A
C3157      F3164   1.358       .  S
C3158      C3159   1.406       .  A
C3158      H3163   1.083       .  S
C3159      C3160   1.410       .  A
C3160      F3161   1.357       .  S
C3165      C3166   1.410       .  A
C3165      C3170   1.401       .  A
C3165      H3172   1.083       .  S
C3166      C3167   1.410       .  A
C3167      C3168   1.405       .  A
C3167      F3174   1.357       .  S
C3168      C3169   1.404       .  A
C3168      H3173   1.083       .  S
C3169      C3170   1.403       .  A
C3170      F3171   1.358       .  S
C3175      C3176   1.402   1_655  A
C3175      C3180   1.393       .  A
C3175      H3182   1.082       .  S
C3176      C3177   1.405       .  A
C3177      C3178   1.406   1_455  A
C3177      F3184   1.356       .  S
C3178      C3179   1.405       .  A
C3178      H3183   1.082   1_655  S
C3179      C3180   1.403       .  A
C3180      F3181   1.357       .  S
C3185      C3186   1.403       .  A
C3185      C3190   1.404       .  A
C3185      H3192   1.081   1_655  S
C3186      C3187   1.404       .  A
C3187      C3188   1.399       .  A
C3187      F3194   1.358       .  S
C3188      C3189   1.404       .  A
C3188      H3193   1.082       .  S
C3189      C3190   1.407       .  A
C3190      F3191   1.357       .  S
C3195      C3196   1.405       .  A
C3195      C3200   1.397       .  A
C3195      H3202   1.083       .  S
C3196      C3197   1.412       .  A
C3197      C3198   1.405       .  A
C3197      F3204   1.357       .  S
C3198      C3199   1.403       .  A
C3198      H3203   1.083       .  S
C3199      C3200   1.406       .  A
C3200      F3201   1.358       .  S
C3205      C3206   1.405       .  A
C3205      C3210   1.391       .  A
C3205      H3212   1.083       .  S
C3206      C3207   1.411       .  A
C3207      C3208   1.408       .  A
C3207      F3214   1.357       .  S
C3208      C3209   1.405       .  A
C3208      H3213   1.083       .  S
C3209      C3210   1.401       .  A
C3210      F3211   1.358       .  S
C3215      C3216   1.399       .  A
C3215      C3220   1.395       .  A
C3215      H3222   1.084       .  S
C3216      C3217   1.408       .  A
C3217      C3218   1.409       .  A
C3217      F3224   1.357       .  S
C3218      C3219   1.407       .  A
C3218      H3223   1.083       .  S
C3219      C3220   1.408       .  A
C3220      F3221   1.358       .  S
C3225      C3226   1.406       .  A
C3225      C3230   1.401       .  A
C3225      H3232   1.084       .  S
C3226      C3227   1.404       .  A
C3227      C3228   1.405       .  A
C3227      F3234   1.357       .  S
C3228      C3229   1.411       .  A
C3228      H3233   1.083       .  S
C3229      C3230   1.412       .  A
C3230      F3231   1.358       .  S
C3235      C3236   1.407       .  A
C3235      C3240   1.408       .  A
C3235      H3242   1.083       .  S
C3236      C3237   1.404       .  A
C3237      C3238   1.399       .  A
C3237      F3244   1.358       .  S
C3238      C3239   1.407       .  A
C3238      H3243   1.083       .  S
C3239      C3240   1.410       .  A
C3240      F3241   1.357       .  S
C3245      C3246   1.410       .  A
C3245      C3250   1.409       .  A
C3245      H3252   1.083       .  S
C3246      C3247   1.408       .  A
C3247      C3248   1.384       .  A
C3247      F3254   1.358       .  S
C3248      C3249   1.404       .  A
C3248      H3253   1.083       .  S
C3249      C3250   1.409       .  A
C3250      F3251   1.357       .  S
C3255      C3256   1.408       .  A
C3255      C3260   1.406       .  A
C3255      H3262   1.083       .  S
C3256      C3257   1.409       .  A
C3257      C3258   1.395       .  A
C3257      F3264   1.358       .  S
C3258      C3259   1.402       .  A
C3258      H3263   1.084       .  S
C3259      C3260   1.406       .  A
C3260      F3261   1.357       .  S
C3265      C3266   1.405       .  A
C3265      C3270   1.393       .  A
C3265      H3272   1.084       .  S
C3266      C3267   1.409       .  A
C3267      C3268   1.411       .  A
C3267      F3274   1.357       .  S
C3268      C3269   1.408   1_455  A
C3269      C3270   1.405   1_655  A
C3270      F3271   1.359   1_455  S
C3275      C3276   1.408       .  A
C3275      C3280   1.414       .  A
C3275      H3282   1.083       .  S
C3276      C3277   1.404       .  A
C3277      C3278   1.393       .  A
C3278      C3279   1.407       .  A
C3279      C3280   1.413       .  A
C3280      F3281   1.357       .  S
C3285      C3286   1.403       .  A
C3285      C3290   1.391       .  A
C3285      H3292   1.084       .  S
C3286      C3287   1.411       .  A
C3287      C3288   1.407       .  A
C3287      F3294   1.357       .  S
C3288      C3289   1.405       .  A
C3288      H3293   1.083       .  S
C3289      C3290   1.406       .  A
C3290      F3291   1.357       .  S
C3295      C3296   1.402       .  A
C3295      C3300   1.393       .  A
C3295      H3302   1.084       .  S
C3296      C3297   1.406       .  A
C3297      C3298   1.404       .  A
C3297      F3304   1.357       .  S
C3298      C3299   1.407       .  A
C3298      H3303   1.083       .  S
C3299      C3300   1.409       .  A
C3300      F3301   1.358       .  S
C3305      C3306   1.412       .  A
C3305      C3310   1.410       .  A
C3305      H3312   1.083       .  S
C3306      C3307   1.412       .  A
C3307      C3308   1.398       .  A
C3307      F3314   1.357       .  S
C3308      C3309   1.403       .  A
C3308      H3313   1.084       .  S
C3309      C3310   1.407       .  A
C3310      F3311   1.357       .  S
C3315      C3316   1.406       .  A
C3315      C3320   1.397       .  A
C3315      H3322   1.083       .  S
C3316      C3317   1.406   1_545  A
C3317      C3318   1.396       .  A
C3317      F3324   1.357       .  S
C3318      C3319   1.403       .  A
C3318      H3323   1.084       .  S
C3319      C3320   1.404   1_565  A
C3320      F3321   1.358       .  S
C3325      C3326   1.411       .  A
C3325      C3330   1.414       .  A
C3325      H3332   1.083       .  S
C3326      C3327   1.408       .  A
C3327      C3328   1.387       .  A
C3327      F3334   1.358       .  S
C3328      C3329   1.404       .  A
C3328      H3333   1.083       .  S
C3329      C3330   1.411       .  A
C3330      F3331   1.357       .  S
C3335      C3336   1.407   1_565  A
C3335      C3340   1.399       .  A
C3335      H3342   1.083       .  S
C3336      C3337   1.410   1_545  A
C3337      C3338   1.403       .  A
C3337      F3344   1.355   1_565  S
C3338      C3339   1.403       .  A
C3338      H3343   1.083       .  S
C3339      C3340   1.405       .  A
C3340      F3341   1.358       .  S
C3345      C3346   1.402       .  A
C3345      C3350   1.397       .  A
C3345      H3352   1.084       .  S
C3346      C3347   1.403       .  A
C3347      C3348   1.401       .  A
C3347      F3354   1.357       .  S
C3348      C3349   1.405       .  A
C3348      H3353   1.084       .  S
C3349      C3350   1.404       .  A
C3350      F3351   1.358       .  S
C3355      C3356   1.410       .  A
C3355      C3360   1.402       .  A
C3355      H3362   1.083       .  S
C3356      C3357   1.411       .  A
C3357      C3358   1.396       .  A
C3357      F3364   1.358       .  S
C3358      C3359   1.402       .  A
C3358      H3363   1.082       .  S
C3359      C3360   1.403       .  A
C3360      F3361   1.357       .  S
C3365      C3366   1.403       .  A
C3365      C3370   1.402       .  A
C3365      H3372   1.083       .  S
C3366      C3367   1.406       .  A
C3367      F3374   1.357       .  S
C3368      C3369   1.405       .  A
C3368      H3373   1.083       .  S
C3375      C3376   1.406       .  A
C3375      C3380   1.394       .  A
C3375      H3382   1.084       .  S
C3376      C3377   1.408       .  A
C3377      C3378   1.404       .  A
C3378      C3379   1.404       .  A
C3378      H3383   1.082       .  S
C3379      C3380   1.402       .  A
C3380      F3381   1.358       .  S
C3385      C3386   1.404       .  A
C3385      C3390   1.394       .  A
C3385      H3392   1.084       .  S
C3386      C3387   1.408       .  A
C3387      C3388   1.405       .  A
C3387      F3394   1.357       .  S
C3388      C3389   1.403       .  A
C3388      H3393   1.083       .  S
C3389      C3390   1.402       .  A
C3390      F3391   1.358       .  S
C3395      C3396   1.406       .  A
C3395      C3400   1.406       .  A
C3395      H3402   1.083       .  S
C3396      C3397   1.402       .  A
C3397      C3398   1.401       .  A
C3397      F3404   1.358       .  S
C3398      C3399   1.411       .  A
C3398      H3403   1.083       .  S
C3399      C3400   1.410       .  A
C3400      F3401   1.357       .  S
C3405      C3406   1.406       .  A
C3405      C3410   1.401   1_545  A
C3405      H3412   1.083       .  S
C3406      C3407   1.407       .  A
C3407      C3408   1.394   1_545  A
C3407      F3414   1.358       .  S
C3408      C3409   1.402       .  A
C3408      H3413   1.083       .  S
C3409      C3410   1.406       .  A
C3410      F3411   1.357       .  S
C3415      C3420   1.402       .  A
C3416      C3417   1.410   1_556  A
C3417      F3424   1.358   1_554  S
C3418      C3419   1.400       .  A
C3418      H3423   1.084       .  S
C3419      C3420   1.403       .  A
C3420      F3421   1.357       .  S
C3425      C3426   1.408       .  A
C3425      C3430   1.409       .  A
C3425      H3432   1.083       .  S
C3426      C3427   1.413       .  A
C3427      C3428   1.384       .  A
C3427      F3434   1.358       .  S
C3428      C3429   1.401       .  A
C3428      H3433   1.084       .  S
C3429      C3430   1.411       .  A
C3430      F3431   1.357       .  S
C3435      C3436   1.400       .  A
C3435      C3440   1.394       .  A
C3435      H3442   1.084       .  S
C3436      C3437   1.405       .  A
C3437      C3438   1.404       .  A
C3437      F3444   1.357       .  S
C3438      C3439   1.407       .  A
C3438      H3443   1.083       .  S
C3439      C3440   1.408       .  A
C3440      F3441   1.358       .  S
C3445      C3446   1.407       .  A
C3445      C3450   1.406       .  A
C3445      H3452   1.083       .  S
C3446      C3447   1.410       .  A
C3447      C3448   1.391       .  A
C3447      F3454   1.358       .  S
C3448      C3449   1.398       .  A
C3448      H3453   1.084       .  S
C3449      C3450   1.405       .  A
C3450      F3451   1.357       .  S
C3455      C3456   1.400       .  A
C3455      C3460   1.388       .  A
C3455      H3462   1.084       .  S
C3456      C3457   1.408       .  A
C3457      C3458   1.409       .  A
C3457      F3464   1.357       .  S
C3458      C3459   1.407       .  A
C3458      H3463   1.083       .  S
C3459      C3460   1.408       .  A
C3460      F3461   1.359       .  S
C3465      C3466   1.408       .  A
C3465      C3470   1.408       .  A
C3465      H3472   1.083       .  S
C3466      C3467   1.408       .  A
C3467      C3468   1.396       .  A
C3467      F3474   1.358       .  S
C3468      C3469   1.405       .  A
C3468      H3473   1.084       .  S
C3469      C3470   1.409       .  A
C3470      F3471   1.357       .  S
C3475      C3476   1.403       .  A
C3475      C3480   1.406       .  A
C3475      H3482   1.083       .  S
C3476      C3477   1.405       .  A
C3477      C3478   1.396       .  A
C3477      F3484   1.357       .  S
C3478      C3479   1.403       .  A
C3478      H3483   1.083       .  S
C3479      C3480   1.411       .  A
C3480      F3481   1.357       .  S
C3485      C3486   1.404       .  A
C3485      C3490   1.399       .  A
C3485      H3492   1.084       .  S
C3487      C3488   1.406       .  A
C3487      F3494   1.357       .  S
C3488      H3493   1.083       .  S
C3489      C3490   1.409       .  A
C3490      F3491   1.357   1_545  S
C3495      C3496   1.406       .  A
C3495      C3500   1.408       .  A
C3495      H3502   1.083       .  S
C3496      C3497   1.409       .  A
C3497      C3498   1.391       .  A
C3497      F3504   1.358   1_556  S
C3498      C3499   1.403       .  A
C3498      H3503   1.083   1_556  S
C3499      C3500   1.413       .  A
C3500      F3501   1.357       .  S
C3505      C3506   1.401       .  A
C3505      C3510   1.396       .  A
C3505      H3512   1.084       .  S
C3506      C3507   1.406       .  A
C3507      C3508   1.404       .  A
C3507      F3514   1.357       .  S
C3508      C3509   1.406       .  A
C3508      H3513   1.083       .  S
C3509      C3510   1.410       .  A
C3515      C3516   1.405       .  A
C3515      C3520   1.400       .  A
C3515      H3522   1.083       .  S
C3516      C3517   1.408       .  A
C3517      C3518   1.400       .  A
C3517      F3524   1.358       .  S
C3518      C3519   1.402       .  A
C3518      H3523   1.084       .  S
C3519      C3520   1.404       .  A
C3520      F3521   1.357       .  S
C3525      C3526   1.404       .  A
C3525      C3530   1.402       .  A
C3525      H3532   1.083       .  S
C3526      C3527   1.404       .  A
C3527      C3528   1.398       .  A
C3527      F3534   1.355       .  S
C3528      C3529   1.404       .  A
C3528      H3533   1.084       .  S
C3529      C3530   1.405       .  A
C3530      F3531   1.357       .  S
C3535      C3536   1.406       .  A
C3535      C3540   1.397       .  A
C3535      H3542   1.083       .  S
C3536      C3537   1.410       .  A
C3537      C3538   1.402       .  A
C3537      F3544   1.357       .  S
C3538      C3539   1.403       .  A
C3538      H3543   1.083       .  S
C3539      C3540   1.405       .  A
C3540      F3541   1.358       .  S
C3545      C3546   1.407       .  A
C3545      C3550   1.406       .  A
C3545      H3552   1.083       .  S
C3546      C3547   1.402       .  A
C3547      C3548   1.390       .  A
C3547      F3554   1.358       .  S
C3548      C3549   1.404       .  A
C3548      H3553   1.084       .  S
C3549      C3550   1.406       .  A
C3550      F3551   1.357       .  S
C3555      C3556   1.410       .  A
C3555      H3562   1.083       .  S
C3556      C3557   1.408       .  A
C3557      F3564   1.358       .  S
C3558      C3559   1.404       .  A
C3558      H3563   1.082       .  S
C3559      C3560   1.407       .  A
C3560      F3561   1.357       .  S
C3565      C3566   1.411       .  A
C3565      C3570   1.402       .  A
C3565      H3572   1.083       .  S
C3566      C3567   1.409       .  A
C3567      C3568   1.398       .  A
C3567      F3574   1.357       .  S
C3568      C3569   1.403       .  A
C3568      H3573   1.083       .  S
C3569      C3570   1.403       .  A
C3570      F3571   1.357       .  S
C3575      C3576   1.403       .  A
C3575      C3580   1.397       .  A
C3575      H3582   1.084       .  S
C3576      C3577   1.408       .  A
C3577      C3578   1.403       .  A
C3577      F3584   1.358       .  S
C3578      C3579   1.402       .  A
C3578      H3583   1.083       .  S
C3579      C3580   1.404       .  A
C3580      F3581   1.358       .  S
C3585      C3586   1.404       .  A
C3585      C3590   1.393       .  A
C3585      H3592   1.084       .  S
C3586      C3587   1.406       .  A
C3587      C3588   1.405       .  A
C3587      F3594   1.357       .  S
C3588      C3589   1.407       .  A
C3588      H3593   1.083       .  S
C3589      C3590   1.408       .  A
C3590      F3591   1.358       .  S
C3595      C3596   1.403       .  A
C3595      H3602   1.084       .  S
C3597      C3598   1.409       .  A
C3598      C3599   1.405       .  A
C3598      H3603   1.083       .  S
C3599      C3600   1.406       .  A
C3600      F3601   1.357       .  S
C3605      C3606   1.398       .  A
C3605      C3610   1.384       .  A
C3605      H3612   1.085       .  S
C3606      C3607   1.407       .  A
C3607      C3608   1.408       .  A
C3607      F3614   1.356       .  S
C3608      C3609   1.406       .  A
C3608      H3613   1.083       .  S
C3609      C3610   1.402       .  A
C3610      F3611   1.354       .  S
C3615      C3616   1.402       .  A
C3615      C3620   1.395       .  A
C3615      H3622   1.083       .  S
C3616      C3617   1.407       .  A
C3617      C3618   1.403       .  A
C3617      F3624   1.357       .  S
C3618      C3619   1.406       .  A
C3618      H3623   1.083       .  S
C3619      C3620   1.409       .  A
C3620      F3621   1.358       .  S
C3625      C3626   1.400       .  A
C3625      C3630   1.392       .  A
C3625      H3632   1.084       .  S
C3626      C3627   1.410       .  A
C3627      C3628   1.410       .  A
C3627      F3634   1.357       .  S
C3628      C3629   1.406       .  A
C3628      H3633   1.083       .  S
C3629      C3630   1.409       .  A
C3630      F3631   1.359       .  S
C3635      C3636   1.406       .  A
C3635      C3640   1.410       .  A
C3635      H3642   1.083       .  S
C3636      C3637   1.410       .  A
C3637      C3638   1.391       .  A
C3637      F3644   1.357       .  S
C3638      C3639   1.398       .  A
C3638      H3643   1.084       .  S
C3639      C3640   1.411       .  A
C3640      F3641   1.357       .  S
C3645      C3646   1.401       .  A
C3645      C3650   1.390       .  A
C3645      H3652   1.084       .  S
C3646      C3647   1.408       .  A
C3647      C3648   1.404       .  A
C3647      F3654   1.357       .  S
C3648      C3649   1.405       .  A
C3648      H3653   1.083       .  S
C3649      C3650   1.407       .  A
C3650      F3651   1.358       .  S
C3655      C3656   1.400       .  A
C3655      C3660   1.394       .  A
C3655      H3662   1.083       .  S
C3656      C3657   1.406       .  A
C3657      C3658   1.401       .  A
C3657      F3664   1.357       .  S
C3658      C3659   1.403       .  A
C3658      H3663   1.083       .  S
C3659      C3660   1.405       .  A
C3660      F3661   1.356       .  S
C3665      C3666   1.406       .  A
C3665      C3670   1.402       .  A
C3665      H3672   1.083       .  S
C3666      C3667   1.408       .  A
C3667      C3668   1.395       .  A
C3667      F3674   1.358       .  S
C3668      C3669   1.400       .  A
C3668      H3673   1.084       .  S
C3669      C3670   1.404       .  A
C3670      F3671   1.357       .  S
C3675      C3676   1.407       .  A
C3675      C3680   1.407       .  A
C3675      H3682   1.083       .  S
C3676      C3677   1.406       .  A
C3677      C3678   1.398       .  A
C3677      F3684   1.358       .  S
C3678      C3679   1.406       .  A
C3678      H3683   1.084       .  S
C3679      C3680   1.408       .  A
C3680      F3681   1.357       .  S
C3685      C3686   1.404       .  A
C3685      C3690   1.405       .  A
C3685      H3692   1.083       .  S
C3686      C3687   1.405       .  A
C3687      C3688   1.401       .  A
C3687      F3694   1.358       .  S
C3688      C3689   1.407   1_455  A
C3688      H3693   1.083       .  S
C3689      C3690   1.410   1_655  A
C3690      F3691   1.357   1_455  S
C3695      C3696   1.408       .  A
C3695      C3700   1.397       .  A
C3695      H3702   1.083       .  S
C3696      C3697   1.407       .  A
C3697      C3698   1.409       .  A
C3697      F3704   1.357       .  S
C3698      C3699   1.413       .  A
C3698      H3703   1.083       .  S
C3699      C3700   1.408       .  A
C3700      F3701   1.358       .  S
C3705      C3706   1.405       .  A
C3705      C3710   1.395       .  A
C3705      H3712   1.084       .  S
C3706      C3707   1.406       .  A
C3707      C3708   1.407       .  A
C3707      F3714   1.357       .  S
C3708      C3709   1.407       .  A
C3708      H3713   1.083       .  S
C3709      C3710   1.404       .  A
C3710      F3711   1.358       .  S
C3715      C3716   1.402       .  A
C3715      C3720   1.402       .  A
C3715      H3722   1.083       .  S
C3716      C3717   1.402       .  A
C3717      C3718   1.395       .  A
C3717      F3724   1.358       .  S
C3718      C3719   1.405       .  A
C3718      H3723   1.084       .  S
C3719      C3720   1.409       .  A
C3720      F3721   1.357       .  S
C3725      C3726   1.406       .  A
C3725      C3730   1.406       .  A
C3725      H3732   1.083       .  S
C3726      C3727   1.412       .  A
C3727      C3728   1.395       .  A
C3727      F3734   1.356       .  S
C3728      C3729   1.400       .  A
C3728      H3733   1.084       .  S
C3729      C3730   1.409       .  A
C3730      F3731   1.357       .  S
C3735      C3736   1.405       .  A
C3735      C3740   1.399       .  A
C3735      H3742   1.083       .  S
C3736      C3737   1.405       .  A
C3737      C3738   1.405       .  A
C3737      F3744   1.357       .  S
C3738      C3739   1.410       .  A
C3738      H3743   1.083       .  S
C3739      C3740   1.409       .  A
C3740      F3741   1.358       .  S
