geometry optimzed in LAMMPS
_audit_creation_date              2020-12-01 
_audit_creation_method            'lammps2cif' 
_symmetry_space_group_name_H-M    'P1' 
_symmetry_Int_Tables_number       1 
_symmetry_cell_setting            triclinic 
loop_ 
_symmetry_equiv_pos_as_xyz 
  x,y,z 
_cell_length_a                    50.08097266 
_cell_length_b                    50.4900436666792 
_cell_length_c                    38.20031716822736 
_cell_angle_alpha                 90.28699364660314 
_cell_angle_beta                  89.62068304459922 
_cell_angle_gamma                 120.27120655752857 
loop_ 
_atom_site_label 
_atom_site_type_symbol 
_atom_site_fract_x 
_atom_site_fract_y 
_atom_site_fract_z 
_atom_site_charge 
Fe1        Fe  0.32559184  0.30186738  0.61644976     1.65800
Fe2        Fe  0.40418598  0.34019840  0.60679348     1.73200
Fe3        Fe  0.36014962  0.26728726  0.57632090     1.54400
O4          O  0.32342265  0.23671146  0.60825440    -0.81900
O5          O  0.41908228  0.34033975  0.55650966    -0.80200
O6          O  0.31133744  0.26291579  0.64607957    -0.84400
O7          O  0.29982663  0.27471682  0.57606690    -0.79300
O8          O  0.38995549  0.26561279  0.61062721    -0.81000
O9          O  0.38755966  0.36819960  0.58637460    -0.83800
C10         C  0.30455018  0.26487375  0.54763176     0.97000
C11         C  0.30764244  0.23779913  0.63399406     1.04400
O12         O  0.36359454  0.30316875  0.60029140    -1.12800
O13         O  0.39526724  0.34587030  0.65853057    -0.75200
O14         O  0.34480947  0.32859513  0.65990708    -0.78700
O15         O  0.32996713  0.26646420  0.54050694    -0.79400
C16         C  0.37114308  0.34207480  0.67401894     0.95900
O17         O  0.33593230  0.33926951  0.58648741    -0.77300
O18         O  0.42388562  0.31426209  0.62548463    -0.82500
C19         C  0.41455159  0.32000085  0.53410423     0.98500
C20         C  0.41427232  0.28540555  0.62601415     1.04400
O21         O  0.39513960  0.29185541  0.53953108    -0.78200
C22         C  0.36075189  0.36305094  0.57710986     1.02700
Fe23       Fe  0.31509443  0.31558958  0.87719614     1.65800
Fe24       Fe  0.35115052  0.39377641  0.88382423     1.73200
Fe25       Fe  0.27916119  0.34855545  0.91700195     1.54400
O26         O  0.24877593  0.31096711  0.88615666    -0.81900
O27         O  0.35252305  0.40948472  0.93405362    -0.80200
O28         O  0.27577398  0.30025862  0.84762502    -0.84400
O29         O  0.28788856  0.28969122  0.91834429    -0.79300
O30         O  0.27499409  0.37622441  0.88230259    -0.81000
O31         O  0.38116352  0.37915442  0.90316271    -0.83800
C32         C  0.27847549  0.29499794  0.94692713     0.97000
C33         C  0.25028432  0.29589253  0.86002749     1.04400
O34         O  0.31520167  0.35295480  0.89219296    -1.12800
O35         O  0.35526224  0.38375932  0.83211635    -0.75200
O36         O  0.34206773  0.33467451  0.83336707    -0.78700
O37         O  0.28092276  0.32058117  0.95358244    -0.79400
C38         C  0.35334123  0.36015996  0.81783125     0.95900
O39         O  0.35301166  0.32786176  0.90696955    -0.77300
O40         O  0.32304750  0.41154569  0.86607602    -0.82500
C41         C  0.33216382  0.40458734  0.95690277     0.98500
C42         C  0.29368585  0.40062760  0.86643203     1.04400
O43         O  0.30392601  0.38450391  0.95218339    -0.78200
C44         C  0.37678056  0.35331725  0.91434651     1.02700
Fe45       Fe  0.19282574  0.00904906  0.60872733     1.65800
Fe46       Fe  0.16164229  0.05463907  0.60703066     1.73200
Fe47       Fe  0.23242896  0.07922364  0.57268843     1.54400
O48         O  0.26136057  0.07825678  0.61085886    -0.81900
O49         O  0.16742812  0.08025223  0.56199969    -0.80200
O50         O  0.23970403  0.02799661  0.61962477    -0.84400
O51         O  0.20040688  0.00125319  0.55831436    -0.79300
O52         O  0.23194838  0.11417450  0.59977210    -0.81000
O53         O  0.13345616  0.01644679  0.57574558    -0.83800
C54         C  0.22330560  0.01934073  0.53957447     0.97000
C55         C  0.26270315  0.05509294  0.62160261     1.04400
O56         O  0.19607025  0.04804833  0.59671201    -1.12800
O57         O  0.15014641  0.02928791  0.65437520    -0.75200
O58         O  0.18545857  0.01508123  0.65974057    -0.78700
O59         O  0.23794316  0.04815023  0.54375137    -0.79400
C60         C  0.16470546  0.01953290  0.67268145     0.95900
O61         O  0.14572264  0.48425558  0.59904321    -0.77300
O62         O  0.19079574  0.09476304  0.63556649    -0.82500
C63         C  0.18220182  0.08422907  0.53345119     0.98500
C64         C  0.21749203  0.11641591  0.62597862     1.04400
O65         O  0.20618587  0.08165033  0.53207397    -0.78200
C66         C  0.13146758  0.49029220  0.57601210     1.02700
Fe67       Fe  0.18418126  0.48349316  0.87852066     1.65800
Fe68       Fe  0.10643217  0.43887421  0.88048823     1.73200
Fe69       Fe  0.15141570  0.41275429  0.91289762     1.54400
O70         O  0.18069828  0.41336369  0.87378698    -0.81900
O71         O  0.08597029  0.41328933  0.92590653    -0.80200
O72         O  0.21081421  0.46370019  0.86615507    -0.84400
O73         O  0.19957103  0.48989675  0.92867503    -0.79300
O74         O  0.11487675  0.37856796  0.88645271    -0.81000
O75         O  0.11763111  0.47709762  0.91194390    -0.83800
C76         C  0.20455025  0.47153965  0.94595167     0.97000
C77         C  0.20599099  0.43651493  0.86375229     1.04400
O78         O  0.14729697  0.44465500  0.89001194    -1.12800
O79         O  0.12125774  0.46492352  0.83345767    -0.75200
O80         O  0.17100880  0.47934144  0.82768692    -0.78700
O81         O  0.18928097  0.44278910  0.94134659    -0.79400
C82         C  0.14639921  0.47698526  0.81561543     0.95900
O83         O  0.16369061  0.00934524  0.89016756    -0.77300
O84         O  0.09377046  0.39854253  0.85161012    -0.82500
C85         C  0.09658256  0.40816200  0.95370461     0.98500
C86         C  0.09769631  0.37644893  0.86113405     1.04400
O87         O  0.12305200  0.41039928  0.95418089    -0.78200
C88         C  0.14237824  0.00312732  0.91234214     1.02700
Fe89       Fe  0.49625750  0.18075638  0.61738733     1.65800
Fe90       Fe  0.45297056  0.10287749  0.60671803     1.73200
Fe91       Fe  0.42800281  0.14934160  0.57559803     1.54400
O92         O  0.43558182  0.18642026  0.60742314    -0.81900
O93         O  0.43845595  0.08843792  0.55640995    -0.80200
O94         O  0.47175071  0.19560003  0.64719419    -0.84400
O95         O  0.49669565  0.20797543  0.57765389    -0.79300
O96         O  0.39453755  0.12057686  0.60907262    -0.81000
O97         O  0.49799167  0.11807854  0.58645224    -0.83800
C98         C  0.48293787  0.20368123  0.54878814     0.97000
C99         C  0.45176574  0.20102519  0.63396043     1.04400
O100        O  0.45873073  0.14397106  0.60055013    -1.12800
O101        O  0.46707841  0.11067815  0.65855861    -0.75200
O102        O  0.50247346  0.16016897  0.66030308    -0.78700
O103        O  0.45973570  0.17828339  0.54059052    -0.79400
C104        C  0.48850629  0.13384278  0.67403640     0.95900
O105        O  0.02266671  0.16947814  0.58702559    -0.77300
O106        O  0.40659707  0.08506062  0.62462541    -0.82500
C107        C  0.42331016  0.09363064  0.53389456     0.98500
C108        C  0.38811999  0.09577511  0.62422019     1.04400
O109        O  0.41616263  0.11420252  0.53887669    -0.78200
C110        C  0.02042006  0.14442040  0.57707708     1.02700
Fe111      Fe  0.02077799  0.19103039  0.87422511     1.65800
Fe112      Fe  0.06225944  0.15441875  0.88274050     1.73200
Fe113      Fe  0.08932869  0.22624789  0.91583362     1.54400
O114        O  0.08391983  0.25688294  0.88333991    -0.81900
O115        O  0.07846205  0.15454639  0.93202371    -0.80200
O116        O  0.04600747  0.23034499  0.84494708    -0.84400
O117        O  0.02101913  0.21795899  0.91432602    -0.79300
O118        O  0.12254128  0.22899260  0.88295590    -0.81000
O119        O  0.01797778  0.12587138  0.90500513    -0.83800
C120        C  0.03521021  0.22805700  0.94281280     0.97000
C121        C  0.06726718  0.25561733  0.85739640     1.04400
O122        O  0.05780986  0.19059470  0.89032698    -1.12800
O123        O  0.04633600  0.14741319  0.83162569    -0.75200
O124        O  0.01333706  0.16444962  0.83061365    -0.78700
O125        O  0.05845488  0.22591003  0.95063887    -0.79400
C126        C  0.02578289  0.15069110  0.81649077     0.95900
O127        O  0.49407694  0.15335792  0.90429068    -0.77300
O128        O  0.10761371  0.18181835  0.86240124    -0.82500
C129        C  0.09168667  0.17369567  0.95638027     0.98500
C130        C  0.12713057  0.21064364  0.86465226     1.04400
O131        O  0.09830045  0.20142334  0.95325058    -0.78200
C132        C  0.49594103  0.13041849  0.91440006     1.02700
Fe133      Fe  0.18690629  0.18554335  0.37752932     1.65800
Fe134      Fe  0.15822293  0.22517578  0.41785712     1.73200
Fe135      Fe  0.10951323  0.15585669  0.38319507     1.54400
O136        O  0.12233616  0.14460829  0.33493142    -0.81900
O137        O  0.12954858  0.19881411  0.45852075    -0.80200
O138        O  0.17215938  0.17930913  0.32720323    -0.84400
O139        O  0.16365365  0.13865720  0.38608410    -0.79300
O140        O  0.09801345  0.18556623  0.35738974    -0.81000
O141        O  0.19449219  0.22815985  0.44515556    -0.83800
C142        C  0.14426096  0.12533147  0.41055856     0.97000
C143        C  0.14686020  0.15723789  0.31611140     1.04400
O144        O  0.15154440  0.18938176  0.39213466    -1.12800
O145        O  0.18834097  0.25472270  0.37999815    -0.75200
O146        O  0.21590725  0.23232994  0.36801360    -0.78700
O147        O  0.11995852  0.12734092  0.41220676    -0.79400
C148        C  0.21272653  0.25578588  0.36836297     0.95900
O149        O  0.20321068  0.19116752  0.42710757    -0.77300
O150        O  0.12290633  0.22633062  0.39279708    -0.82500
C151        C  0.10249482  0.17550216  0.45807202     0.98500
C152        C  0.10429066  0.21223129  0.36798931     1.04400
O153        O  0.09065637  0.16090226  0.42984947    -0.78200
C154        C  0.20768131  0.21246216  0.44799246     1.02700
Fe155      Fe  0.19282716  0.17413992  0.11408994     1.65800
Fe156      Fe  0.22907813  0.14336974  0.06906632     1.73200
Fe157      Fe  0.15914615  0.09710432  0.10547472     1.54400
O158        O  0.14823558  0.10917808  0.15420678    -0.81900
O159        O  0.20134830  0.11464840  0.02908777    -0.80200
O160        O  0.18558749  0.15727240  0.16362286    -0.84400
O161        O  0.14580054  0.15363452  0.10439608    -0.79300
O162        O  0.18818690  0.08419606  0.13043213    -0.81000
O163        O  0.23232960  0.17963249  0.04178579    -0.83800
C164        C  0.13158534  0.13492783  0.07968352     0.97000
C165        C  0.16341958  0.13207188  0.17440592     1.04400
O166        O  0.19423704  0.13831847  0.09658277    -1.12800
O167        O  0.26100038  0.17325527  0.10535340    -0.75200
O168        O  0.23972977  0.20004709  0.12493308    -0.78700
O169        O  0.13181691  0.10985150  0.07747737    -0.79400
C170        C  0.26287404  0.19640020  0.12112635     0.95900
O171        O  0.20073757  0.19386858  0.06605103    -0.77300
O172        O  0.22936827  0.10788949  0.09455887    -0.82500
C173        C  0.17777082  0.08790543  0.03057525     0.98500
C174        C  0.21477810  0.08964776  0.11956356     1.04400
O175        O  0.16287869  0.07750219  0.05899481    -0.78200
C176        C  0.21966587  0.19594933  0.04264425     1.02700
Fe177      Fe  0.31429296  0.48571709  0.38129729     1.65800
Fe178      Fe  0.27849297  0.41578227  0.41880318     1.73200
Fe179      Fe  0.35090518  0.44493759  0.38552917     1.54400
O180        O  0.35982959  0.46770031  0.33661458    -0.81900
O181        O  0.30558879  0.41523774  0.45978786    -0.80200
O182        O  0.32325839  0.48020668  0.33076840    -0.84400
O183        O  0.36069401  0.01428586  0.39155550    -0.79300
O184        O  0.32480701  0.40250959  0.35959086    -0.81000
O185        O  0.27027786  0.44545320  0.44720602    -0.83800
C186        C  0.37655845  0.01012649  0.41417592     0.97000
C187        C  0.34439921  0.47626274  0.31801130     1.04400
O188        O  0.31416585  0.44829690  0.39460908    -1.12800
O189        O  0.24795763  0.41386531  0.38050087    -0.75200
O190        O  0.26764762  0.46351408  0.36955818    -0.78700
O191        O  0.37697843  0.48514291  0.41464332    -0.79400
C192        C  0.24541504  0.43602771  0.36854827     0.95900
O193        O  0.30495346  0.49304715  0.43112079    -0.77300
O194        O  0.28183502  0.38216945  0.39255994    -0.82500
C195        C  0.33120341  0.41556247  0.45961764     0.98500
C196        C  0.29862325  0.37993922  0.36910684     1.04400
O197        O  0.34784007  0.42235333  0.43215828    -0.78200
C198        C  0.28279022  0.47427119  0.45028133     1.02700
Fe199      Fe  0.32533006  0.00711000  0.10861244     1.65800
Fe200      Fe  0.35962652  0.07741440  0.07275554     1.73200
Fe201      Fe  0.40348935  0.05094436  0.10815676     1.54400
O202        O  0.38762135  0.02658414  0.15605325    -0.81900
O203        O  0.38892903  0.07896662  0.03319004    -0.80200
O204        O  0.33758706  0.01169481  0.15987743    -0.84400
O205        O  0.34521075  0.48051084  0.09945067    -0.79300
O206        O  0.41741108  0.09286033  0.13474267    -0.81000
O207        O  0.32309108  0.04747134  0.04307395    -0.83800
C208        C  0.36667940  0.48584141  0.07796183     0.97000
C209        C  0.36212491  0.01475866  0.17319400     1.04400
O210        O  0.36288749  0.04562999  0.09726406    -1.12800
O211        O  0.32909838  0.07757801  0.10988634    -0.75200
O212        O  0.29907257  0.02749936  0.11914925    -0.78700
O213        O  0.39184166  0.01149417  0.07849297    -0.79400
C214        C  0.30376431  0.05465252  0.12028054     0.95900
O215        O  0.31073797  0.00010189  0.05778455    -0.77300
O216        O  0.39531229  0.11167048  0.09971493    -0.82500
C217        C  0.41482668  0.07999770  0.03419572     0.98500
C218        C  0.41333022  0.11471917  0.12444031     1.04400
O219        O  0.42478147  0.07466742  0.06228344    -0.78200
C220        C  0.30762548  0.01876039  0.03863496     1.02700
Fe221      Fe  0.49775879  0.30901214  0.11181130     1.65800
Fe222      Fe  0.42957214  0.27051405  0.07024189     1.73200
Fe223      Fe  0.45130120  0.33954795  0.10625518     1.54400
O224        O  0.47469656  0.35035110  0.15446098    -0.81900
O225        O  0.42844356  0.29787980  0.03057076    -0.80200
O226        O  0.48828588  0.31497397  0.16205642    -0.84400
O227        O  0.02241909  0.35585030  0.10268823    -0.79300
O228        O  0.40938221  0.30973117  0.13195935    -0.81000
O229        O  0.46299164  0.26805741  0.04206117    -0.83800
C230        C  0.01676335  0.36896491  0.07793102     0.97000
C231        C  0.48362322  0.33579854  0.17378487     1.04400
O232        O  0.45898983  0.30573972  0.09679890    -1.12800
O233        O  0.42907282  0.23989783  0.10690841    -0.75200
O234        O  0.47869294  0.26222086  0.12179526    -0.78700
O235        O  0.49089630  0.36794527  0.07705392    -0.79400
C236        C  0.45168750  0.23879429  0.12040880     0.95900
O237        O  0.50910781  0.30320112  0.06254151    -0.77300
O238        O  0.39296037  0.26906995  0.09622134    -0.82500
C239        C  0.42541199  0.32136536  0.03165733     0.98500
C240        C  0.38859686  0.28312887  0.12125371     1.04400
O241        O  0.42770423  0.33522979  0.06024000    -0.78200
C242        C  0.49224851  0.28302318  0.04051019     1.02700
Fe243      Fe  0.01576834  0.31786020  0.37934625     1.65800
Fe244      Fe  0.08473033  0.35249795  0.41945235     1.73200
Fe245      Fe  0.05902390  0.39512393  0.38088033     1.54400
O246        O  0.03368695  0.37901514  0.33388906    -0.81900
O247        O  0.08475831  0.38172582  0.45804535    -0.80200
O248        O  0.02332027  0.33094621  0.32852561    -0.84400
O249        O  0.48905803  0.33805414  0.38721333    -0.79300
O250        O  0.10041227  0.40711655  0.35392533    -0.81000
O251        O  0.05319146  0.31658573  0.44872539    -0.83800
C252        C  0.49408799  0.35804777  0.41046620     0.97000
C253        C  0.02341692  0.35420548  0.31632150     1.04400
O254        O  0.05363778  0.35509791  0.39265821    -1.12800
O255        O  0.08670895  0.32231469  0.38361265    -0.75200
O256        O  0.03708212  0.29211995  0.37022039    -0.78700
O257        O  0.01958528  0.38340003  0.41065415    -0.79400
C258        C  0.06476502  0.29753749  0.37085125     0.95900
O259        O  0.00612891  0.30283771  0.42950545    -0.77300
O260        O  0.11973715  0.38789621  0.39256238    -0.82500
C261        C  0.08731447  0.40799830  0.45527841     0.98500
C262        C  0.12235958  0.40354570  0.36555195     1.04400
O263        O  0.08377492  0.41757464  0.42592287    -0.78200
C264        C  0.02401897  0.30113505  0.45133471     1.02700
C265        C  0.01002140  0.35113205  0.28105610    -0.05700
C266        C  0.02019543  0.37652695  0.25871712    -0.33100
C267        C  0.00985008  0.37244385  0.22388588     0.36100
C268        C  0.48921571  0.34273120  0.21132990    -0.06100
C269        C  0.47728724  0.31793226  0.23440502    -0.33000
C270        C  0.98731690  0.32185793  0.26890630     0.36000
H271        H  0.03725958  0.39922483  0.26767732     0.16400
O272        O  0.02203393  0.39709625  0.20167996    -0.60500
H273        H  0.46095901  0.29503280  0.22518328     0.16400
O274        O  0.97471179  0.29677907  0.29058744    -0.60600
H275        H  0.48493478  0.28498007  0.28394807     0.43400
H276        H  0.00776353  0.40529613  0.20329439     0.43400
C277        C  0.42898985  0.14586817  0.13996911    -0.05700
C278        C  0.45855874  0.16732536  0.12747455    -0.33100
C279        C  0.46754034  0.19852800  0.12409305     0.36100
C280        C  0.44661908  0.20861648  0.13286837    -0.06100
C281        C  0.41862264  0.18784713  0.14916167    -0.33000
C282        C  0.40987734  0.15685191  0.15297164     0.36000
H283        H  0.47324824  0.15938650  0.11633750     0.16400
O284        O  0.49507095  0.21798124  0.10784598    -0.60500
H285        H  0.40246661  0.19515022  0.15678130     0.16400
O286        O  0.38090388  0.13662037  0.16565891    -0.60600
H287        H  0.36644744  0.13393509  0.14653150     0.43400
H288        H  0.51062536  0.22593490  0.12684929     0.43400
C289        C  0.21495787  0.43061690  0.35589238    -0.05700
C290        C  0.20683423  0.45322106  0.36227111    -0.33100
C291        C  0.17611154  0.44648439  0.35912364     0.36100
C292        C  0.15302777  0.41699911  0.34883947    -0.06100
C293        C  0.16197622  0.39601629  0.33751363    -0.33000
C294        C  0.19246653  0.40232917  0.34169950     0.36000
H295        H  0.22367678  0.47525710  0.37309479     0.16400
O296        O  0.16819014  0.46721385  0.37128811    -0.60500
H297        H  0.14443093  0.37302247  0.32990643     0.16400
O298        O  0.19957934  0.38012113  0.33354282    -0.60600
H299        H  0.19126731  0.36530868  0.35319133     0.43400
H300        H  0.16947529  0.47953755  0.35054170     0.43400
C301        C  0.35032807  0.48214248  0.27995924    -0.05700
C302        C  0.38041027  0.99957848  0.26616003    -0.33100
C303        C  0.38511614  0.00979923  0.23107663     0.36100
C304        C  0.35949126  0.00293125  0.20961107    -0.06100
C305        C  0.32962477  0.48380847  0.22324426    -0.33000
C306        C  0.32497802  0.47337722  0.25761836     0.36000
H307        H  0.40020920  0.00647452  0.28293847     0.16400
O308        O  0.41470986  0.02759339  0.21874404    -0.60500
H309        H  0.30934674  0.47703155  0.20733065     0.16400
O310        O  0.29521941  0.45532479  0.26954512    -0.60600
H311        H  0.29127095  0.43401401  0.26837414     0.43400
H312        H  0.42057397  0.01285534  0.20937709     0.43400
C313        C  0.29375928  0.22119027  0.13289491    -0.05700
C314        C  0.31513192  0.21379736  0.14641050    -0.33100
C315        C  0.34659271  0.23601757  0.14850164     0.36100
C316        C  0.35726410  0.26620324  0.13673909    -0.06100
C317        C  0.33546231  0.27446089  0.12715015    -0.33000
C318        C  0.30385034  0.25225369  0.12539652     0.36000
H319        H  0.30786224  0.19032501  0.15308804     0.16400
O320        O  0.36730045  0.22733449  0.15867689    -0.60500
H321        H  0.34321697  0.29726240  0.11713543     0.16400
O322        O  0.28377123  0.26044224  0.11180031    -0.60600
H323        H  0.27535787  0.26594085  0.13238830     0.43400
H324        H  0.36912749  0.21595830  0.13844338     0.43400
C325        C  0.23127408  0.07530426  0.13517148    -0.05700
C326        C  0.22406090  0.04609346  0.12352580    -0.33100
C327        C  0.24696083  0.03781748  0.12191094     0.36100
C328        C  0.27782743  0.05926746  0.13130996    -0.06100
C329        C  0.28402121  0.08702411  0.14674984    -0.33000
C330        C  0.26093620  0.09492782  0.14903730     0.36000
H331        H  0.20166964  0.03098932  0.11198185     0.16400
O332        O  0.23974377  0.01029536  0.10685582    -0.60500
H333        H  0.30729899  0.10354854  0.15488365     0.16400
O334        O  0.26847069  0.12341602  0.16133592    -0.60600
H335        H  0.27930975  0.13757569  0.14158704     0.43400
H336        H  0.23124391  0.99518991  0.12621646     0.43400
C337        C  0.23935000  0.28598940  0.35797590    -0.05700
C338        C  0.23479184  0.30620529  0.33722236    -0.33100
C339        C  0.25777842  0.33728458  0.33471111     0.36100
C340        C  0.28537100  0.34883726  0.35403446    -0.06100
C341        C  0.29122576  0.32793806  0.37157406    -0.33000
C342        C  0.26860938  0.29668594  0.37337671     0.36000
H343        H  0.21266634  0.29834869  0.32474988     0.16400
O344        O  0.25177982  0.35692157  0.31624905    -0.60500
H345        H  0.31180606  0.33637998  0.38745549     0.16400
O346        O  0.27379209  0.27778805  0.39437752    -0.60600
H347        H  0.28208862  0.26805037  0.37848618     0.43400
H348        H  0.24104659  0.36346812  0.33298804     0.43400
C349        C  0.14760129  0.14523067  0.28092154    -0.05700
C350        C  0.17510601  0.14631182  0.27055570    -0.33100
C351        C  0.17916041  0.13909564  0.23646586     0.36100
C352        C  0.15555359  0.13052702  0.21178480    -0.06100
C353        C  0.12707217  0.12715542  0.22247601    -0.33000
C354        C  0.12292970  0.13436121  0.25703255     0.36000
H355        H  0.19413368  0.15387011  0.28872892     0.16400
O356        O  0.20717068  0.14252734  0.22679454    -0.60500
H357        H  0.10890678  0.12110352  0.20347948     0.16400
O358        O  0.09594427  0.13343486  0.26612464    -0.60600
H359        H  0.08139708  0.11175405  0.27247194     0.43400
H360        H  0.20528650  0.12232917  0.23135711     0.43400
C361        C  0.09043578  0.22934264  0.35262673    -0.05700
C362        C  0.05948795  0.22004426  0.36006599    -0.33100
C363        C  0.04980381  0.24178715  0.36245871     0.36100
C364        C  0.07151348  0.27344051  0.35834414    -0.06100
C365        C  0.10139227  0.28199394  0.34661616    -0.33000
C366        C  0.11069973  0.26019584  0.34315892     0.36000
H367        H  0.04366010  0.19657182  0.36783017     0.16400
O368        O  0.02008941  0.23217862  0.37303652    -0.60500
H369        H  0.11827267  0.30596785  0.34236551     0.16400
O370        O  0.14103458  0.27000711  0.33520045    -0.60600
H371        H  0.14138540  0.26691551  0.30959360     0.43400
H372        H  0.00799242  0.22719792  0.35107520     0.43400
C373        C  0.09937278  0.16287904  0.98944869    -0.05700
C374        C  0.11302712  0.18299150  0.01791067    -0.33100
C375        C  0.12149818  0.17363875  0.04852440     0.36100
C376        C  0.11681825  0.14359449  0.05130998    -0.06100
C377        C  0.10188587  0.12311956  0.02353205    -0.33000
C378        C  0.09305887  0.13229533  0.99318803     0.36000
H379        H  0.11773126  0.20637450  0.01630663     0.16400
O380        O  0.13586304  0.19474006  0.07472069    -0.60500
H381        H  0.09791670  0.09996826  0.02465821     0.16400
O382        O  0.07933378  0.11123236  0.96680360    -0.60600
H383        H  0.05694935  0.10007383  0.97258211     0.43400
H384        H  0.11884159  0.19372804  0.08916958     0.43400
C385        C  0.47242839  0.11026853  0.94074976    -0.05700
C386        C  0.48124748  0.09918843  0.96949644    -0.33100
C387        C  0.46239194  0.08815127  0.99960052     0.36100
C388        C  0.43416557  0.08828514  0.00154063    -0.06100
C389        C  0.42444635  0.09712740  0.97159356    -0.33000
C390        C  0.44307411  0.10785692  0.94160679     0.36000
H391        H  0.00372644  0.10096302  0.96963882     0.16400
O392        O  0.47259325  0.07868059  0.02745242    -0.60500
H393        H  0.40267183  0.09683755  0.97168863     0.16400
O394        O  0.43303275  0.11771296  0.91393880    -0.60600
H395        H  0.42595201  0.10114005  0.89619650     0.43400
H396        H  0.46462557  0.05653756  0.02327043     0.43400
C397        C  0.50679495  0.27450924  0.01337251    -0.05700
C398        C  0.49156807  0.26399237  0.98142553    -0.33100
C399        C  0.50043658  0.24871059  0.95810722     0.36100
C400        C  0.02515003  0.24404164  0.96672368    -0.06100
C401        C  0.04144373  0.25622957  0.99798493    -0.33000
C402        C  0.03251488  0.27155659  0.02122350     0.36000
H403        H  0.47182600  0.26644478  0.97520669     0.16400
O404        O  0.48450437  0.23823176  0.92729040    -0.60500
H405        H  0.06078254  0.25336663  0.00491421     0.16400
O406        O  0.04735353  0.28111748  0.05277938    -0.60600
H407        H  0.06442724  0.30240112  0.04868699     0.43400
H408        H  0.46644346  0.21784314  0.93292317     0.43400
C409        C  0.01638793  0.13949215  0.78040450    -0.05700
C410        C  0.98479606  0.12341400  0.77190643    -0.33100
C411        C  0.97524538  0.11872956  0.73689876     0.36100
C412        C  0.49744406  0.13107528  0.70995150    -0.06100
C413        C  0.52898006  0.14527741  0.71842210    -0.33000
C414        C  0.53850580  0.14910789  0.75338947     0.36000
H415        H  0.96751064  0.11574908  0.79250415     0.16400
O416        O  0.94426632  0.10403863  0.72941543    -0.60500
H417        H  0.54632182  0.15470178  0.69787961     0.16400
O418        O  0.56949707  0.16428386  0.76087466    -0.60600
H419        H  0.57574521  0.18628843  0.76212792     0.43400
H420        H  0.93891655  0.12045277  0.72858675     0.43400
C421        C  0.08375800  0.16504299  0.49121563    -0.05700
C422        C  0.05536558  0.13706528  0.49188226    -0.33100
C423        C  0.03579488  0.12809542  0.52142178     0.36100
C424        C  0.04410642  0.14734939  0.55104581    -0.06100
C425        C  0.07347324  0.17408281  0.55138652    -0.33000
C426        C  0.09325639  0.18281573  0.52219232     0.36000
H427        H  0.04765988  0.12246720  0.46891588     0.16400
O428        O  0.00734070  0.10198584  0.51961380    -0.60500
H429        H  0.08049739  0.18930523  0.57383501     0.16400
O430        O  0.12093901  0.20985212  0.52367649    -0.60600
H431        H  0.13590795  0.20422692  0.53278816     0.43400
H432        H  0.01068668  0.08530862  0.52799078     0.43400
C433        C  0.49304359  0.22964326  0.52520249    -0.05700
C434        C  0.47263751  0.22830899  0.49935101    -0.33100
C435        C  0.98129812  0.25274254  0.47669990     0.36100
C436        C  0.01101363  0.27875231  0.47949435    -0.06100
C437        C  0.03056638  0.28088550  0.50679680    -0.33000
C438        C  0.02185570  0.25659388  0.52956250     0.36000
H439        H  0.44994143  0.20816087  0.49639464     0.16400
O440        O  0.46135699  0.24995950  0.45059535    -0.60500
H441        H  0.05336847  0.30092539  0.50962079     0.16400
O442        O  0.04239978  0.25889930  0.55467233    -0.60600
H443        H  0.03991550  0.27055539  0.57416741     0.43400
H444        H  0.44908518  0.25869846  0.46055211     0.43400
C445        C  0.41361332  0.07443120  0.50115723    -0.05700
C446        C  0.42188646  0.05173060  0.49640183    -0.33100
C447        C  0.41169512  0.03186407  0.46736742     0.36100
C448        C  0.39270203  0.03416216  0.44187798    -0.06100
C449        C  0.38554365  0.05772711  0.44582221    -0.33000
C450        C  0.39576027  0.07763106  0.47485136     0.36000
H451        H  0.43588595  0.04876965  0.51573845     0.16400
O452        O  0.41956538  0.00954276  0.46504798    -0.60500
H453        H  0.37079660  0.06008715  0.42699790     0.16400
O454        O  0.38697566  0.09925641  0.47777092    -0.60600
H455        H  0.40308134  0.11742061  0.46497798     0.43400
H456        H  0.43921935  0.01900488  0.45158322     0.43400
C457        C  0.06983457  0.28471946  0.84535624    -0.05700
C458        C  0.04817061  0.29231387  0.85826462    -0.33100
C459        C  0.05449780  0.32278851  0.85784657     0.36100
C460        C  0.08262061  0.34613163  0.84388011    -0.06100
C461        C  0.10226189  0.33771322  0.82679901    -0.33000
C462        C  0.09616379  0.30733872  0.82771555     0.36000
H463        H  0.02775517  0.27518870  0.87200130     0.16400
O464        O  0.03494202  0.33010153  0.87509612    -0.60500
H465        H  0.12436096  0.35538636  0.81659104     0.16400
O466        O  0.11743080  0.30068094  0.81400718    -0.60600
H467        H  0.10981565  0.29260608  0.79018822     0.43400
H468        H  0.04111379  0.33243613  0.90002498     0.43400
C469        C  0.14803075  0.02631332  0.94036712    -0.05700
C470        C  0.17464320  0.05568702  0.93846860    -0.33100
C471        C  0.18428560  0.07610518  0.96699599     0.36100
C472        C  0.16719879  0.06769943  0.99862333    -0.06100
C473        C  0.13984210  0.03882776  0.00000095    -0.33000
C474        C  0.13024566  0.01835537  0.97147763     0.36000
H475        H  0.18893230  0.06258799  0.91510377     0.16400
O476        O  0.21092719  0.10394948  0.96372501    -0.60500
H477        H  0.12602569  0.03158137  0.02371677     0.16400
O478        O  0.10453202  0.98986364  0.97533881    -0.60600
H479        H  0.08674506  0.99276230  0.97044353     0.43400
H480        H  0.22787756  0.10001200  0.96959600     0.43400
C481        C  0.23058803  0.48384081  0.97019763    -0.05700
C482        C  0.24281156  0.46518967  0.97964867    -0.33100
C483        C  0.26902732  0.97664452  0.00039266     0.36100
C484        C  0.28323739  0.00708670  0.01230779    -0.06100
C485        C  0.27158153  0.52599946  0.00199489    -0.33000
C486        C  0.24538223  0.51458911  0.98129661     0.39600
H487        H  0.23235974  0.44171356  0.97048648     0.16400
O488        O  0.28032331  0.95781894  0.00907997    -0.60500
H489        H  0.28207528  0.04951812  0.01102582     0.16400
O490        O  0.23449270  0.53370241  0.97225539    -0.60600
H491        H  0.21958587  0.53115051  0.99098057     0.43400
H492        H  0.29594403  0.96140248  0.99076615     0.43400
C493        C  0.07737500  0.39959819  0.98656848    -0.05700
C494        C  0.05326651  0.40618463  0.98985445    -0.33100
C495        C  0.03455401  0.39812620  0.02008798     0.36100
C496        C  0.03944425  0.38294317  0.04819724    -0.06100
C497        C  0.06404263  0.37703448  0.04518427    -0.33000
C498        C  0.08275394  0.38511382  0.01498692     0.36000
H499        H  0.04869363  0.41756768  0.96873202     0.16400
O500        O  0.01087977  0.40434080  0.02119239    -0.60500
H501        H  0.06813317  0.36485604  0.06578549     0.16400
O502        O  0.10508775  0.37705141  0.01284681    -0.60600
H503        H  0.12307948  0.39337713  0.02562559     0.43400
H504        H  0.01996023  0.42505325  0.03187468     0.43400
C505        C  0.17098664  0.09219524  0.50092548    -0.05700
C506        C  0.18808914  0.09904953  0.46953005    -0.33100
C507        C  0.17875896  0.10793242  0.43920471     0.36100
C508        C  0.15156110  0.10996068  0.43944798    -0.06100
C509        C  0.13366422  0.10154229  0.47027701    -0.33000
C510        C  0.14297073  0.09271911  0.50052907     0.36000
H511        H  0.20927504  0.09821648  0.46854946     0.16400
O512        O  0.19672978  0.11493600  0.40962368    -0.60500
H513        H  0.11278922  0.10293829  0.47156237     0.16400
O514        O  0.12469683  0.08549420  0.52986217    -0.60600
H515        H  0.11006711  0.06310770  0.52816246     0.43400
H516        H  0.21408134  0.13622378  0.41333413     0.43400
C517        C  0.35638046  0.07894768  0.63900148    -0.05700
C518        C  0.33539226  0.04970311  0.62591125    -0.33100
C519        C  0.30365262  0.03984059  0.62390851     0.36100
C520        C  0.29282732  0.05974606  0.63427452    -0.06100
C521        C  0.31308671  0.08675899  0.65214680    -0.33000
C522        C  0.34452826  0.09621707  0.65496435     0.36000
H523        H  0.34390900  0.03604001  0.61348002     0.16400
O524        O  0.28426871  0.01247017  0.60775616    -0.60500
H525        H  0.30504140  0.10168855  0.66183941     0.16400
O526        O  0.36421063  0.12404405  0.67014423    -0.60600
H527        H  0.36550387  0.13969582  0.65350405     0.43400
H528        H  0.27566396  0.99722121  0.62696327     0.43400
C529        C  0.15815869  0.01282249  0.71048071    -0.05700
C530        C  0.12804258  0.49297506  0.72314433    -0.33100
C531        C  0.12320181  0.48165536  0.75777471     0.36100
C532        C  0.14872729  0.49012392  0.78001288    -0.06100
C533        C  0.17841205  0.51164290  0.76763999    -0.33000
C534        C  0.18322904  0.02268205  0.73345991     0.36000
H535        H  0.10850104  0.48493300  0.70567231     0.16400
O536        O  0.09380808  0.46095712  0.76868750    -0.60500
H537        H  0.19846694  0.51956835  0.78428980     0.16400
O538        O  0.21282178  0.04293574  0.72246707    -0.60600
H539        H  0.22253940  0.03028895  0.71795934     0.43400
H540        H  0.08548725  0.47357116  0.77856176     0.43400
C541        C  0.09517617  0.42818567  0.48717143    -0.05700
C542        C  0.10134236  0.41852506  0.51905260    -0.33100
C543        C  0.11067721  0.43743663  0.54886419     0.36100
C544        C  0.11455124  0.46719023  0.54760220    -0.06100
C545        C  0.10648580  0.47616608  0.51642132    -0.33000
C546        C  0.09689823  0.45708374  0.48655620     0.36000
H547        H  0.09961033  0.39630794  0.52086996     0.16400
O548        O  0.11712782  0.42685422  0.57877132    -0.60500
H549        H  0.10895866  0.49870338  0.51453049     0.16400
O550        O  0.08951586  0.46716474  0.45688746    -0.60600
H551        H  0.10954344  0.48072421  0.44507160     0.43400
H552        H  0.09725773  0.41610418  0.59178034     0.43400
C553        C  0.23580428  0.00654260  0.51460659    -0.05700
C554        C  0.23487230  0.47915950  0.52327412    -0.33100
C555        C  0.25127127  0.46890091  0.50345991     0.36100
C556        C  0.26882884  0.48620636  0.47454327    -0.06100
C557        C  0.26947027  0.51344392  0.46570402    -0.33000
C558        C  0.25308486  0.02367581  0.48551075     0.36000
H559        H  0.22243815  0.46628036  0.54630704     0.16400
O560        O  0.25092530  0.44261765  0.51328268    -0.60500
H561        H  0.28203423  0.52648111  0.44281213     0.16400
O562        O  0.25355559  0.05006555  0.47586569    -0.60600
H563        H  0.27396389  0.06708556  0.48353165     0.43400
H564        H  0.23067052  0.42551963  0.50535697     0.43400
C565        C  0.39819807  0.35163475  0.93963126    -0.05700
C566        C  0.40304056  0.32655796  0.93761619    -0.33100
C567        C  0.41343747  0.31741046  0.96658577     0.36100
C568        C  0.41850993  0.33292620  0.99890610    -0.06100
C569        C  0.41619976  0.35965927  0.99992982    -0.33000
C570        C  0.40637855  0.36914063  0.97061487     0.36000
H571        H  0.39682213  0.31273564  0.91401989     0.16400
O572        O  0.41661315  0.29207122  0.96341042    -0.60500
H573        H  0.42070558  0.37262514  0.02400643     0.16400
O574        O  0.40154988  0.39347339  0.97387783    -0.60600
H575        H  0.42146019  0.41172144  0.96696402     0.43400
H576        H  0.43824781  0.30008558  0.95551484     0.43400
C577        C  0.22982019  0.22014521  0.01691161    -0.05700
C578        C  0.23914177  0.24990270  0.02853260    -0.33100
C579        C  0.25562883  0.27481712  0.00633833     0.36100
C580        C  0.26240300  0.26981499  0.97186951    -0.06100
C581        C  0.25189779  0.23975069  0.96015025    -0.33000
C582        C  0.23568552  0.21499926  0.98241567     0.36000
H583        H  0.23524233  0.25400671  0.05546455     0.16400
O584        O  0.26563047  0.30382130  0.01891961    -0.60500
H585        H  0.25645534  0.23526059  0.93372166     0.16400
O586        O  0.22558110  0.18581300  0.97034158    -0.60600
H587        H  0.24410272  0.18349907  0.97013683     0.43400
H588        H  0.28632677  0.31064874  0.02897110     0.43400
C589        C  0.22095708  0.27014186  0.84696204    -0.05700
C590        C  0.19952195  0.27602874  0.83083977    -0.33100
C591        C  0.16811319  0.25351480  0.83037599     0.36100
C592        C  0.15771987  0.22512186  0.84730940    -0.06100
C593        C  0.17969978  0.21787974  0.85914248    -0.33000
C594        C  0.21127193  0.24017390  0.85870906     0.36000
H595        H  0.20663936  0.29889518  0.82150518     0.16400
O596        O  0.14716464  0.26078838  0.81735759    -0.60500
H597        H  0.17225848  0.19644881  0.87269783     0.16400
O598        O  0.23189191  0.23375132  0.87435171    -0.60600
H599        H  0.24082466  0.22753498  0.85495370     0.43400
H600        H  0.14517704  0.27366624  0.83569932     0.43400
C601        C  0.23191633  0.43209831  0.85233916    -0.05700
C602        C  0.26219466  0.45319463  0.86347635    -0.33100
C603        C  0.28551187  0.44544696  0.86277059     0.36100
C604        C  0.27873865  0.41645169  0.85034784    -0.06100
C605        C  0.25004273  0.39770274  0.83400192    -0.33000
C606        C  0.22646217  0.40490596  0.83575655     0.36000
H607        H  0.26697998  0.47435815  0.87621877     0.16400
O608        O  0.31306290  0.46429655  0.87908846    -0.60500
H609        H  0.24446273  0.37535091  0.82403741     0.16400
O610        O  0.19767237  0.38436020  0.82313273    -0.60600
H611        H  0.18820017  0.36785656  0.84092828     0.43400
H612        H  0.32744280  0.47671185  0.86003547     0.43400
C613        C  0.34194628  0.42325710  0.98997947    -0.05700
C614        C  0.37263237  0.44769382  0.99376310    -0.33100
C615        C  0.38192266  0.46696661  0.02338731     0.36100
C616        C  0.36045967  0.46225723  0.05023954    -0.06100
C617        C  0.33045654  0.43649979  0.04753287    -0.33000
C618        C  0.32114748  0.41732573  0.01798040     0.36000
H619        H  0.38946977  0.45252364  0.97320300     0.16400
O620        O  0.41168527  0.49111222  0.02488884    -0.60500
H621        H  0.31337668  0.43183125  0.06774493     0.16400
O622        O  0.29147330  0.39294246  0.01684746    -0.60600
H623        H  0.27882829  0.40139720  0.00772526     0.43400
H624        H  0.42324158  0.48333349  0.03823818     0.43400
C625        C  0.34176733  0.40703092  0.49226303    -0.05700
C626        C  0.32240240  0.39672022  0.52193867    -0.33100
C627        C  0.32996468  0.38527952  0.55134818     0.36100
C628        C  0.35731196  0.38360126  0.55179693    -0.06100
C629        C  0.37796113  0.39623767  0.52350653    -0.33000
C630        C  0.37053887  0.40796528  0.49409685     0.36000
H631        H  0.30061590  0.39640689  0.52198613     0.16400
O632        O  0.30951591  0.37425130  0.57888023    -0.60500
H633        H  0.39903815  0.39517341  0.52305545     0.16400
O634        O  0.39104174  0.41882770  0.46663065    -0.60600
H635        H  0.40536582  0.44081084  0.47209717     0.43400
H636        H  0.31759649  0.39119236  0.59617073     0.43400
C637        C  0.23035124  0.22112723  0.47563056    -0.05700
C638        C  0.22746895  0.23626976  0.50486989    -0.33100
C639        C  0.25157734  0.25098848  0.52822511     0.36100
C640        C  0.27897925  0.24999727  0.52296270    -0.06100
C641        C  0.28118008  0.23332518  0.49467776    -0.33000
C642        C  0.25707045  0.21898198  0.47090467     0.36000
H643        H  0.20687004  0.23787045  0.50887585     0.16400
O644        O  0.24813721  0.26668405  0.55566613    -0.60500
H645        H  0.30177119  0.23175762  0.49059149     0.16400
O646        O  0.26042637  0.20414118  0.44250171    -0.60600
H647        H  0.27121901  0.22025443  0.42452508     0.43400
H648        H  0.25585383  0.28777970  0.54676318     0.43400
C649        C  0.23429418  0.14607482  0.64468474    -0.05700
C650        C  0.22769240  0.16922219  0.63652999    -0.33100
C651        C  0.25106283  0.20025404  0.63772308     0.36100
C652        C  0.28159139  0.20835716  0.64662492    -0.06100
C653        C  0.28724189  0.18554445  0.65874411    -0.33000
C654        C  0.26374066  0.15463221  0.65824358     0.36000
H655        H  0.20555517  0.16318727  0.62518618     0.16400
O656        O  0.24488627  0.22196522  0.62504791    -0.60500
H657        H  0.31054910  0.19134436  0.66556265     0.16400
O658        O  0.27078677  0.13254654  0.66694847    -0.60600
H659        H  0.28291201  0.13165593  0.64682405     0.43400
H660        H  0.24228465  0.23203202  0.64609855     0.43400
C661        C  0.36337588  0.36146216  0.78122907    -0.05700
C662        C  0.38097485  0.34786605  0.77200193    -0.33100
C663        C  0.38611989  0.34385256  0.73678197     0.36100
C664        C  0.37275432  0.35264846  0.71034750    -0.06100
C665        C  0.35637169  0.36749310  0.71958894    -0.33000
C666        C  0.35199050  0.37230228  0.75473877     0.36000
H667        H  0.38968693  0.33922898  0.79218314     0.16400
O668        O  0.40148695  0.32854738  0.72860216    -0.60500
H669        H  0.34572820  0.37412518  0.69947101     0.16400
O670        O  0.33385857  0.38470127  0.76289132    -0.60600
H671        H  0.34839183  0.40711923  0.76454134     0.43400
H672        H  0.42355093  0.34475843  0.72644244     0.43400
C673        C  0.43178709  0.27259352  0.64290456    -0.05700
C674        C  0.41476446  0.24590505  0.66318544    -0.33100
C675        C  0.42326526  0.22338876  0.66453716     0.36100
C676        C  0.44941983  0.22762895  0.64602699    -0.06100
C677        C  0.46891936  0.25618266  0.63017325    -0.33000
C678        C  0.46019851  0.27861244  0.62838663     0.36000
H679        H  0.39267386  0.24072713  0.67428238     0.16400
O680        O  0.40390350  0.19593041  0.68047018    -0.60500
H681        H  0.48908761  0.25970556  0.61557690     0.16400
O682        O  0.47740598  0.30432326  0.60840102    -0.60600
H683        H  0.47056167  0.29795303  0.58410572     0.43400
H684        H  0.41341715  0.19709217  0.70340895     0.43400
C685        C  0.47097253  0.35022098  0.43941177    -0.05700
C686        C  0.44535252  0.32019900  0.44182938    -0.33100
C687        C  0.42649634  0.31010807  0.47190454     0.36100
C688        C  0.43295491  0.33001479  0.50075104    -0.06100
C689        C  0.45763922  0.36043803  0.49759292    -0.33000
C690        C  0.47641705  0.37054473  0.46755152     0.36000
H691        H  0.44048658  0.30390448  0.42083344     0.16400
O692        O  0.40233828  0.28045739  0.47299313    -0.60500
H693        H  0.46308310  0.37651630  0.51896801     0.16400
O694        O  0.50098217  0.39999205  0.46692989    -0.60600
H695        H  0.49287244  0.41235278  0.45617539     0.43400
H696        H  0.38438881  0.28130888  0.46349474     0.43400
Fe697      Fe  0.32559274  0.80186736  0.61646096     1.65800
Fe698      Fe  0.40418828  0.84018830  0.60680756     1.73200
Fe699      Fe  0.36014205  0.76727427  0.57633523     1.54400
O700        O  0.32341317  0.73669922  0.60826608    -0.81900
O701        O  0.41908163  0.84032335  0.55652602    -0.80200
O702        O  0.31131942  0.76290509  0.64607811    -0.84400
O703        O  0.29983132  0.77473546  0.57606077    -0.79300
O704        O  0.38994590  0.76559864  0.61064486    -0.81000
O705        O  0.38757391  0.86819982  0.58638862    -0.83800
C706        C  0.30455136  0.76488199  0.54763010     0.97000
C707        C  0.30762656  0.73778803  0.63399753     1.04400
O708        O  0.36359200  0.80316104  0.60030338    -1.12800
O709        O  0.39527443  0.84586906  0.65854142    -0.75200
O710        O  0.34481333  0.82857882  0.65993019    -0.78700
O711        O  0.32995898  0.76644720  0.54051766    -0.79400
C712        C  0.37115038  0.84206750  0.67403483     0.95900
O713        O  0.33594631  0.83928365  0.58651722    -0.77300
O714        O  0.42387937  0.81424584  0.62550487    -0.82500
C715        C  0.41454704  0.81998450  0.53411933     0.98500
C716        C  0.41426141  0.78538844  0.62603648     1.04400
O717        O  0.39513226  0.79183954  0.53954457    -0.78200
C718        C  0.36076718  0.86306256  0.57713755     1.02700
Fe719      Fe  0.31510995  0.81559733  0.87720053     1.65800
Fe720      Fe  0.35115398  0.89378323  0.88382784     1.73200
Fe721      Fe  0.27916970  0.84855200  0.91700668     1.54400
O722        O  0.24878816  0.81095832  0.88616482    -0.81900
O723        O  0.35252731  0.90948793  0.93405787    -0.80200
O724        O  0.27579005  0.80026301  0.84762438    -0.84400
O725        O  0.28790000  0.78969367  0.91834536    -0.79300
O726        O  0.27498937  0.87620996  0.88230657    -0.81000
O727        O  0.38117421  0.87916768  0.90316276    -0.83800
C728        C  0.27849562  0.79500497  0.94693186     0.97000
C729        C  0.25029846  0.79589081  0.86002920     1.04400
O730        O  0.31521080  0.85295905  0.89219558    -1.12800
O731        O  0.35526503  0.88376914  0.83211892    -0.75200
O732        O  0.34208965  0.83468959  0.83337655    -0.78700
O733        O  0.28095028  0.82059076  0.95358805    -0.79400
C734        C  0.35335593  0.86017348  0.81783803     0.95900
O735        O  0.35302505  0.82787510  0.90698093    -0.77300
O736        O  0.32304040  0.91154433  0.86608764    -0.82500
C737        C  0.33216604  0.90458990  0.95690398     0.98500
C738        C  0.29367706  0.90061823  0.86644247     1.04400
O739        O  0.30392904  0.88450604  0.95218187    -0.78200
C740        C  0.37679270  0.85333288  0.91435433     1.02700
Fe741      Fe  0.19280018  0.50902809  0.60871586     1.65800
Fe742      Fe  0.16161995  0.55462278  0.60703902     1.73200
Fe743      Fe  0.23240799  0.57921001  0.57269905     1.54400
O744        O  0.26133173  0.57823498  0.61087415    -0.81900
O745        O  0.16740344  0.58023450  0.56200650    -0.80200
O746        O  0.23967703  0.52797135  0.61961205    -0.84400
O747        O  0.20038009  0.50124245  0.55829524    -0.79300
O748        O  0.23192860  0.61416046  0.59978584    -0.81000
O749        O  0.13343136  0.51643269  0.57575059    -0.83800
C750        C  0.22328495  0.51933287  0.53956392     0.97000
C751        C  0.26267349  0.55506775  0.62160697     1.04400
O752        O  0.19604701  0.54803175  0.59671587    -1.12800
O753        O  0.15013104  0.52927101  0.65438556    -0.75200
O754        O  0.18543327  0.51504841  0.65973264    -0.78700
O755        O  0.23792571  0.54814061  0.54375671    -0.79400
C756        C  0.16468690  0.51950602  0.67268291     0.95900
O757        O  0.14574712  0.98427098  0.59904694    -0.77300
O758        O  0.19077290  0.59474862  0.63557472    -0.82500
C759        C  0.18217961  0.58421426  0.53345885     0.98500
C760        C  0.21746876  0.61640309  0.62598778     1.04400
O761        O  0.20616741  0.58164134  0.53208359    -0.78200
C762        C  0.13148984  0.99030502  0.57601480     1.02700
Fe763      Fe  0.18418058  0.98350259  0.87850918     1.65800
Fe764      Fe  0.10642919  0.93888552  0.88047188     1.73200
Fe765      Fe  0.15140734  0.91276566  0.91289020     1.54400
O766        O  0.18068332  0.91336650  0.87377929    -0.81900
O767        O  0.08596480  0.91330069  0.92589195    -0.80200
O768        O  0.21080854  0.96370225  0.86614783    -0.84400
O769        O  0.19956937  0.98990594  0.92866484    -0.79300
O770        O  0.11486193  0.87857738  0.88645410    -0.81000
O771        O  0.11762839  0.97710894  0.91192390    -0.83800
C772        C  0.20454824  0.97154831  0.94594074     0.97000
C773        C  0.20598015  0.93651461  0.86374883     1.04400
O774        O  0.14729324  0.94466624  0.88999897    -1.12800
O775        O  0.12125885  0.96493647  0.83344303    -0.75200
O776        O  0.17101085  0.97935553  0.82767420    -0.78700
O777        O  0.18927730  0.94279813  0.94133444    -0.79400
C778        C  0.14640206  0.97700231  0.81560377     0.95900
O779        O  0.16368947  0.50933413  0.89018090    -0.77300
O780        O  0.09376804  0.89855314  0.85159521    -0.82500
C781        C  0.09657923  0.90818041  0.95369349     0.98500
C782        C  0.09768729  0.87645770  0.86112890     1.04400
O783        O  0.12305083  0.91042339  0.95417210    -0.78200
C784        C  0.14237949  0.50311753  0.91235827     1.02700
Fe785      Fe  0.49622473  0.68073058  0.61740615     1.65800
Fe786      Fe  0.45293947  0.60285478  0.60673108     1.73200
Fe787      Fe  0.42797075  0.64931975  0.57562034     1.54400
O788        O  0.43555395  0.68639902  0.60744974    -0.81900
O789        O  0.43843281  0.58842075  0.55642021    -0.80200
O790        O  0.47171675  0.69556585  0.64722410    -0.84400
O791        O  0.49665807  0.70795371  0.57768128    -0.79300
O792        O  0.39450662  0.62055733  0.60909809    -0.81000
O793        O  0.49796515  0.61806001  0.58646924    -0.83800
C794        C  0.48290638  0.70365921  0.54881142     0.97000
C795        C  0.45173500  0.70099675  0.63399227     1.04400
O796        O  0.45869849  0.64394729  0.60056773    -1.12800
O797        O  0.46703740  0.61065160  0.65857519    -0.75200
O798        O  0.50244659  0.66013761  0.66031320    -0.78700
O799        O  0.45970465  0.67826142  0.54061135    -0.79400
C800        C  0.48847201  0.63381283  0.67404999     0.95900
O801        O  0.02263393  0.66945878  0.58702853    -0.77300
O802        O  0.40656269  0.58503447  0.62463139    -0.82500
C803        C  0.42327992  0.59360944  0.53391065     0.98500
C804        C  0.38808711  0.59575107  0.62423580     1.04400
O805        O  0.41612673  0.61417708  0.53889936    -0.78200
C806        C  0.02039018  0.64440151  0.57708345     1.02700
Fe807      Fe  0.02078770  0.69104122  0.87420774     1.65800
Fe808      Fe  0.06226907  0.65442745  0.88273127     1.73200
Fe809      Fe  0.08933537  0.72625674  0.91582069     1.54400
O810        O  0.08392941  0.75689153  0.88332294    -0.81900
O811        O  0.07848621  0.65456168  0.93200999    -0.80200
O812        O  0.04601996  0.73035428  0.84492607    -0.84400
O813        O  0.02102998  0.71797798  0.91430067    -0.79300
O814        O  0.12255138  0.72899840  0.88294787    -0.81000
O815        O  0.01799339  0.62588841  0.90500939    -0.83800
C816        C  0.03521833  0.72807478  0.94278900     0.97000
C817        C  0.06727733  0.75562686  0.85737915     1.04400
O818        O  0.05781882  0.69060417  0.89031220    -1.12800
O819        O  0.04632723  0.64740195  0.83162407    -0.75200
O820        O  0.01333895  0.66445112  0.83060261    -0.78700
O821        O  0.05845813  0.72592099  0.95062033    -0.79400
C822        C  0.02577305  0.65067790  0.81648891     0.95900
O823        O  0.49409117  0.65337418  0.90428199    -0.77300
O824        O  0.10761874  0.68182721  0.86237712    -0.82500
C825        C  0.09169938  0.67370877  0.95637149     0.98500
C826        C  0.12713860  0.71065170  0.86463622     1.04400
O827        O  0.09830161  0.70143306  0.95324455    -0.78200
C828        C  0.49595681  0.63043730  0.91439967     1.02700
Fe829      Fe  0.18688252  0.68553600  0.37753892     1.65800
Fe830      Fe  0.15818620  0.72515839  0.41785522     1.73200
Fe831      Fe  0.10948686  0.65583567  0.38319829     1.54400
O832        O  0.12231726  0.64458750  0.33493933    -0.81900
O833        O  0.12951865  0.69879209  0.45852131    -0.80200
O834        O  0.17213697  0.67930029  0.32721206    -0.84400
O835        O  0.16363357  0.63864955  0.38609531    -0.79300
O836        O  0.09798161  0.68553507  0.35738434    -0.81000
O837        O  0.19446782  0.72816022  0.44514748    -0.83800
C838        C  0.14424047  0.62532170  0.41056935     0.97000
C839        C  0.14684162  0.65722374  0.31611999     1.04400
O840        O  0.15151544  0.68936632  0.39213817    -1.12800
O841        O  0.18829733  0.75470653  0.37999123    -0.75200
O842        O  0.21587686  0.73232410  0.36802637    -0.78700
O843        O  0.11993642  0.62732801  0.41221733    -0.79400
C844        C  0.21269103  0.75577714  0.36837184     0.95900
O845        O  0.20318959  0.69116624  0.42711848    -0.77300
O846        O  0.12285762  0.72629642  0.39279942    -0.82500
C847        C  0.10246355  0.67548148  0.45807188     0.98500
C848        C  0.10424613  0.71219440  0.36798883     1.04400
O849        O  0.09062429  0.66088390  0.42984804    -0.78200
C850        C  0.20766586  0.71247103  0.44799072     1.02700
Fe851      Fe  0.19283692  0.67415370  0.11410640     1.65800
Fe852      Fe  0.22908441  0.64338296  0.06907074     1.73200
Fe853      Fe  0.15915063  0.59711628  0.10547683     1.54400
O854        O  0.14824260  0.60918184  0.15421458    -0.81900
O855        O  0.20135467  0.61466119  0.02908797    -0.80200
O856        O  0.18558650  0.65727830  0.16363703    -0.84400
O857        O  0.14581262  0.65365875  0.10439876    -0.79300
O858        O  0.18818996  0.58419914  0.13042421    -0.81000
O859        O  0.23233723  0.67964680  0.04179491    -0.83800
C860        C  0.13159451  0.63494916  0.07968909     0.97000
C861        C  0.16342201  0.63207426  0.17441658     1.04400
O862        O  0.19424362  0.63833143  0.09659049    -1.12800
O863        O  0.26100925  0.67326795  0.10536062    -0.75200
O864        O  0.23973742  0.70005234  0.12496267    -0.78700
O865        O  0.13182224  0.60987049  0.07748704    -0.79400
C866        C  0.26288211  0.69640727  0.12114768     0.95900
O867        O  0.20075989  0.69389528  0.06607383    -0.77300
O868        O  0.22937368  0.60790123  0.09455595    -0.82500
C869        C  0.17777338  0.58791975  0.03057378     0.98500
C870        C  0.21478230  0.58965387  0.11955517     1.04400
O871        O  0.16287789  0.57751935  0.05899159    -0.78200
C872        C  0.21968152  0.69597043  0.04266156     1.02700
Fe873      Fe  0.31429441  0.98571053  0.38130965     1.65800
Fe874      Fe  0.27849786  0.91578048  0.41883435     1.73200
Fe875      Fe  0.35090866  0.94493281  0.38555011     1.54400
O876        O  0.35982641  0.96768184  0.33662464    -0.81900
O877        O  0.30559618  0.91523791  0.45981619    -0.80200
O878        O  0.32326438  0.98020097  0.33078518    -0.84400
O879        O  0.36069495  0.51428513  0.39154177    -0.79300
O880        O  0.32480561  0.90249715  0.35962573    -0.81000
O881        O  0.27028876  0.94545349  0.44723745    -0.83800
C882        C  0.37654992  0.51012188  0.41417187     0.97000
C883        C  0.34439973  0.97625097  0.31802424     1.04400
O884        O  0.31416943  0.94829280  0.39463099    -1.12800
O885        O  0.24795582  0.91385750  0.38053869    -0.75200
O886        O  0.26765034  0.96350243  0.36956731    -0.78700
O887        O  0.37698679  0.98514725  0.41464787    -0.79400
C888        C  0.24541534  0.93601694  0.36857324     0.95900
O889        O  0.30495257  0.99304490  0.43112753    -0.77300
O890        O  0.28183256  0.88216568  0.39259239    -0.82500
C891        C  0.33121561  0.91557280  0.45965053     0.98500
C892        C  0.29861818  0.87993115  0.36914025     1.04400
O893        O  0.34785370  0.92236471  0.43219167    -0.78200
C894        C  0.28279851  0.97427188  0.45029955     1.02700
Fe895      Fe  0.32534106  0.50711854  0.10860678     1.65800
Fe896      Fe  0.35963710  0.57742168  0.07274514     1.73200
Fe897      Fe  0.40350066  0.55095168  0.10814653     1.54400
O898        O  0.38763402  0.52659346  0.15604422    -0.81900
O899        O  0.38894029  0.57897546  0.03318141    -0.80200
O900        O  0.33760037  0.51170723  0.15987079    -0.84400
O901        O  0.34520073  0.98050379  0.09945530    -0.79300
O902        O  0.41742628  0.59287001  0.13472869    -0.81000
O903        O  0.32310330  0.54747673  0.04306307    -0.83800
C904        C  0.36667041  0.98583613  0.07796736     0.97000
C905        C  0.36213775  0.51476847  0.17318528     1.04400
O906        O  0.36289853  0.54563802  0.09725519    -1.12800
O907        O  0.32910689  0.57758484  0.10987227    -0.75200
O908        O  0.29908223  0.52750715  0.11914173    -0.78700
O909        O  0.39185061  0.51149960  0.07848490    -0.79400
C910        C  0.30377301  0.55466001  0.12026807     0.95900
O911        O  0.31074718  0.50010734  0.05778053    -0.77300
O912        O  0.39532228  0.61167849  0.09970602    -0.82500
C913        C  0.41483725  0.58000566  0.03418688     0.98500
C914        C  0.41334432  0.61472853  0.12442761     1.04400
O915        O  0.42479112  0.57467242  0.06227306    -0.78200
C916        C  0.30763602  0.51876529  0.03862858     1.02700
Fe917      Fe  0.49777693  0.80902254  0.11180220     1.65800
Fe918      Fe  0.42958286  0.77052159  0.07024619     1.73200
Fe919      Fe  0.45131194  0.83955310  0.10626798     1.54400
O920        O  0.47470470  0.85034781  0.15447688    -0.81900
O921        O  0.42844651  0.79788703  0.03057792    -0.80200
O922        O  0.48831240  0.81498179  0.16205154    -0.84400
O923        O  0.02243648  0.85586340  0.10268327    -0.79300
O924        O  0.40939267  0.80973385  0.13197073    -0.81000
O925        O  0.46300088  0.76806738  0.04205575    -0.83800
C926        C  0.01677385  0.86897897  0.07793345     0.97000
C927        C  0.48363797  0.83579541  0.17379219     1.04400
O928        O  0.45900327  0.80574783  0.09680167    -1.12800
O929        O  0.42909131  0.73990796  0.10691009    -0.75200
O930        O  0.47871437  0.76223141  0.12178432    -0.78700
O931        O  0.49090516  0.86795603  0.07706746    -0.79400
C932        C  0.45170834  0.73880519  0.12040471     0.95900
O933        O  0.50911889  0.80321433  0.06252697    -0.77300
O934        O  0.39297068  0.76907176  0.09623495    -0.82500
C935        C  0.42541970  0.82137557  0.03166756     0.98500
C936        C  0.38860721  0.78313096  0.12126729     1.04400
O937        O  0.42771712  0.83524050  0.06025167    -0.78200
C938        C  0.49225773  0.78303577  0.04049700     1.02700
Fe939      Fe  0.01575921  0.81784368  0.37938028     1.65800
Fe940      Fe  0.08472386  0.85247441  0.41947958     1.73200
Fe941      Fe  0.05902058  0.89510493  0.38090436     1.54400
O942        O  0.03368344  0.87899161  0.33391105    -0.81900
O943        O  0.08476689  0.88171473  0.45807052    -0.80200
O944        O  0.02331509  0.83092194  0.32855848    -0.84400
O945        O  0.48905545  0.83804458  0.38723294    -0.79300
O946        O  0.10040970  0.90709656  0.35395339    -0.81000
O947        O  0.05318254  0.81656886  0.44875939    -0.83800
C948        C  0.49408564  0.85803677  0.41048652     0.97000
C949        C  0.02341350  0.85417963  0.31634689     1.04400
O950        O  0.05363239  0.85507896  0.39268740    -1.12800
O951        O  0.08669123  0.82228133  0.38364038    -0.75200
O952        O  0.03706134  0.79209336  0.37026012    -0.78700
O953        O  0.01958319  0.88338720  0.41067759    -0.79400
C954        C  0.06474254  0.79750653  0.37087956     0.95900
O955        O  0.00612138  0.80283322  0.42954377    -0.77300
O956        O  0.11972938  0.88786365  0.39258173    -0.82500
C957        C  0.08732023  0.90798638  0.45530075     0.98500
C958        C  0.12235500  0.90352196  0.36557876     1.04400
O959        O  0.08377164  0.91755679  0.42594566    -0.78200
C960        C  0.02400976  0.80112428  0.45137039     1.02700
C961        C  0.01002309  0.85110242  0.28107579    -0.05700
C962        C  0.02016012  0.87650559  0.25875721    -0.33100
C963        C  0.00981733  0.87242842  0.22392467     0.36100
C964        C  0.48922256  0.84271221  0.21134265    -0.06100
C965        C  0.47732803  0.81790124  0.23439881    -0.33000
C966        C  0.98735614  0.82182043  0.26890215     0.36000
H967        H  0.03719231  0.89920936  0.26773510     0.16400
O968        O  0.02196256  0.89709539  0.20174169    -0.60500
H969        H  0.46102874  0.79499826  0.22516131     0.16400
O970        O  0.97478111  0.79672705  0.29056065    -0.60600
H971        H  0.48503531  0.78496497  0.28391243     0.43400
H972        H  0.00766462  0.90526117  0.20338151     0.43400
C973        C  0.42900592  0.64587789  0.13995600    -0.05700
C974        C  0.45857645  0.66733477  0.12746477    -0.33100
C975        C  0.46756134  0.69853888  0.12408970     0.36100
C976        C  0.44664065  0.70862802  0.13286509    -0.06100
C977        C  0.41864316  0.68785859  0.14915625    -0.33000
C978        C  0.40989509  0.65686247  0.15296116     0.36000
H979        H  0.47326536  0.65939555  0.11632693     0.16400
O980        O  0.49509501  0.71799367  0.10784923    -0.60500
H981        H  0.40248795  0.69516239  0.15677699     0.16400
O982        O  0.38092055  0.63663138  0.16564587    -0.60600
H983        H  0.36646576  0.63394649  0.14651654     0.43400
H984        H  0.51064700  0.72594019  0.12685527     0.43400
C985        C  0.21495710  0.93060523  0.35592379    -0.05700
C986        C  0.20682958  0.95320340  0.36232365    -0.33100
C987        C  0.17610602  0.94646379  0.35918431     0.36100
C988        C  0.15302634  0.91698451  0.34887524    -0.06100
C989        C  0.16197833  0.89600846  0.33753367    -0.33000
C990        C  0.19246805  0.90232081  0.34172187     0.36000
H991        H  0.22366931  0.97523389  0.37316221     0.16400
O992        O  0.16817932  0.96717883  0.37138702    -0.60500
H993        H  0.14443516  0.87301741  0.32991452     0.16400
O994        O  0.19958133  0.88011381  0.33356176    -0.60600
H995        H  0.19127405  0.86530275  0.35321229     0.43400
H996        H  0.16937296  0.97946057  0.35063807     0.43400
C997        C  0.35032264  0.98213128  0.27997025    -0.05700
C998        C  0.38041752  0.49961114  0.26616157    -0.33100
C999        C  0.38512686  0.50982889  0.23107753     0.36100
C1000       C  0.35950293  0.50293737  0.20959973    -0.06100
C1001       C  0.32961349  0.98382689  0.22326920    -0.33000
C1002       C  0.32496951  0.97339349  0.25764188     0.36000
H1003       H  0.40021390  0.50652578  0.28295015     0.16400
O1004       O  0.41472132  0.52764386  0.21875631    -0.60500
H1005       H  0.30933304  0.97707027  0.20736765     0.16400
O1006       O  0.29521057  0.95536767  0.26958050    -0.60600
H1007       H  0.29123823  0.93404856  0.26841251     0.43400
H1008       H  0.42061764  0.51291810  0.20942810     0.43400
C1009       C  0.29376763  0.72119610  0.13292043    -0.05700
C1010       C  0.31514013  0.71380316  0.14643710    -0.33100
C1011       C  0.34660189  0.73602310  0.14852566     0.36100
C1012       C  0.35727443  0.76620687  0.13675546    -0.06100
C1013       C  0.33547274  0.77446560  0.12716957    -0.33000
C1014       C  0.30385962  0.75226010  0.12542368     0.36000
H1015       H  0.30786913  0.69033142  0.15311928     0.16400
O1016       O  0.36730881  0.72734202  0.15871032    -0.60500
H1017       H  0.34322742  0.79726671  0.11715356     0.16400
O1018       O  0.28377888  0.76045102  0.11183802    -0.60600
H1019       H  0.27536878  0.76594698  0.13243121     0.43400
H1020       H  0.36913935  0.71596450  0.13848058     0.43400
C1021       C  0.23128363  0.57531443  0.13516004    -0.05700
C1022       C  0.22406709  0.54609898  0.12352751    -0.33100
C1023       C  0.24696749  0.53782282  0.12191140     0.36100
C1024       C  0.27783692  0.55927669  0.13129683    -0.06100
C1025       C  0.28403511  0.58703976  0.14672150    -0.33000
C1026       C  0.26095149  0.59494491  0.14900797     0.36000
H1027       H  0.20167197  0.53098992  0.11199489     0.16400
O1028       O  0.23974707  0.51029534  0.10686847    -0.60500
H1029       H  0.30731570  0.60356865  0.15484198     0.16400
O1030       O  0.26849291  0.62344187  0.16128265    -0.60600
H1031       H  0.27934903  0.63759198  0.14153164     0.43400
H1032       H  0.23122069  0.49519070  0.12622833     0.43400
C1033       C  0.23931917  0.78598458  0.35800451    -0.05700
C1034       C  0.23477405  0.80620604  0.33724559    -0.33100
C1035       C  0.25776663  0.83728396  0.33474164     0.36100
C1036       C  0.28535696  0.84882834  0.35406896    -0.06100
C1037       C  0.29119626  0.82792367  0.37161955    -0.33000
C1038       C  0.26856976  0.79667557  0.37342629     0.36000
H1039       H  0.21265335  0.79835510  0.32476373     0.16400
O1040       O  0.25177455  0.85692790  0.31628461    -0.60500
H1041       H  0.31177072  0.83636041  0.38751025     0.16400
O1042       O  0.27373177  0.77777829  0.39445338    -0.60600
H1043       H  0.28205214  0.76804698  0.37858761     0.43400
H1044       H  0.24106782  0.86349617  0.33303480     0.43400
C1045       C  0.14758820  0.64521861  0.28093115    -0.05700
C1046       C  0.17509412  0.64629979  0.27057087    -0.33100
C1047       C  0.17915399  0.63908751  0.23648082     0.36100
C1048       C  0.15555165  0.63052384  0.21179472    -0.06100
C1049       C  0.12706922  0.62715245  0.22248070    -0.33000
C1050       C  0.12292125  0.63435395  0.25703674     0.36000
H1051       H  0.19411830  0.65385525  0.28874859     0.16400
O1052       O  0.20716471  0.64251773  0.22681455    -0.60500
H1053       H  0.10890749  0.62110456  0.20348032     0.16400
O1054       O  0.09593547  0.63342906  0.26612310    -0.60600
H1055       H  0.08139218  0.61175185  0.27248840     0.43400
H1056       H  0.20529435  0.62233221  0.23142645     0.43400
C1057       C  0.09038646  0.72929877  0.35262303    -0.05700
C1058       C  0.05944235  0.72000599  0.36007341    -0.33100
C1059       C  0.04976548  0.74175375  0.36247086     0.36100
C1060       C  0.07148094  0.77340598  0.35835724    -0.06100
C1061       C  0.10135317  0.78195215  0.34660799    -0.33000
C1062       C  0.11065221  0.76015010  0.34313908     0.36000
H1063       H  0.04361340  0.69653518  0.36784231     0.16400
O1064       O  0.02005282  0.73215071  0.37305102    -0.60500
H1065       H  0.11823514  0.80592478  0.34235237     0.16400
O1066       O  0.14098683  0.76996661  0.33516664    -0.60600
H1067       H  0.14112999  0.76567132  0.30983843     0.43400
H1068       H  0.00795622  0.72717849  0.35109004     0.43400
C1069       C  0.09938446  0.66289418  0.98944349    -0.05700
C1070       C  0.11304813  0.68301225  0.01789904    -0.33100
C1071       C  0.12151718  0.67366205  0.04851661     0.36100
C1072       C  0.11682757  0.64361471  0.05131276    -0.06100
C1073       C  0.10188546  0.62313432  0.02354165    -0.33000
C1074       C  0.09305856  0.63230731  0.99319448     0.36000
H1075       H  0.11776107  0.70639782  0.01628711     0.16400
O1076       O  0.13588913  0.69476836  0.07470649    -0.60500
H1077       H  0.09790711  0.59997998  0.02467632     0.16400
O1078       O  0.07931837  0.61123707  0.96681997    -0.60600
H1079       H  0.05693616  0.60008633  0.97260937     0.43400
H1080       H  0.11887162  0.69376905  0.08915124     0.43400
C1081       C  0.47244402  0.61028974  0.94074916    -0.05700
C1082       C  0.48126052  0.59920394  0.96949250    -0.33100
C1083       C  0.46240223  0.58816087  0.99959314     0.36100
C1084       C  0.43417703  0.58829663  0.00153368    -0.06100
C1085       C  0.42446059  0.59714538  0.97158972    -0.33000
C1086       C  0.44309048  0.60787933  0.94160550     0.36000
H1087       H  0.00373904  0.60097761  0.96963262     0.16400
O1088       O  0.47259884  0.57868085  0.02744085    -0.60500
H1089       H  0.40268650  0.59685640  0.97168516     0.16400
O1090       O  0.43305094  0.61773814  0.91393850    -0.60600
H1091       H  0.42594668  0.60115512  0.89620685     0.43400
H1092       H  0.46461830  0.55653549  0.02325832     0.43400
C1093       C  0.50680260  0.77452639  0.01335006    -0.05700
C1094       C  0.49155805  0.76398479  0.98141577    -0.33100
C1095       C  0.50043143  0.74870879  0.95809412     0.36100
C1096       C  0.02516032  0.74406427  0.96669631    -0.06100
C1097       C  0.04147754  0.75628633  0.99793680    -0.33000
C1098       C  0.03254711  0.77161119  0.02117701     0.36000
H1099       H  0.47179916  0.76641290  0.97521019     0.16400
O1100       O  0.48448080  0.73820388  0.92729184    -0.60500
H1101       H  0.06083716  0.75345201  0.00484951     0.16400
O1102       O  0.04741416  0.78120739  0.05271317    -0.60600
H1103       H  0.06446662  0.80249641  0.04859470     0.43400
H1104       H  0.46643485  0.71781062  0.93294348     0.43400
C1105       C  0.01636963  0.63946532  0.78040880    -0.05700
C1106       C  0.98477606  0.62337581  0.77191769    -0.33100
C1107       C  0.97522001  0.61868690  0.73691098     0.36100
C1108       C  0.49741333  0.63104309  0.70996294    -0.06100
C1109       C  0.52895065  0.64524918  0.71842745    -0.33000
C1110       C  0.53848169  0.64907867  0.75339198     0.36000
H1111       H  0.96749377  0.61570553  0.79251930     0.16400
O1112       O  0.94423941  0.60397878  0.72943220    -0.60500
H1113       H  0.54628957  0.65467678  0.69788224     0.16400
O1114       O  0.56947407  0.66425374  0.76087090    -0.60600
H1115       H  0.57572060  0.68625754  0.76213947     0.43400
H1116       H  0.93886944  0.62037973  0.72863649     0.43400
C1117       C  0.08372654  0.66502232  0.49121609    -0.05700
C1118       C  0.05533467  0.63704386  0.49188551    -0.33100
C1119       C  0.03576580  0.62807415  0.52142746     0.36100
C1120       C  0.04407609  0.64733113  0.55104904    -0.06100
C1121       C  0.07344222  0.67406591  0.55138612    -0.33000
C1122       C  0.09322563  0.68279604  0.52219203     0.36000
H1123       H  0.04762930  0.62244390  0.46892065     0.16400
O1124       O  0.00731569  0.60195905  0.51962582    -0.60500
H1125       H  0.08046681  0.68929004  0.57383304     0.16400
O1126       O  0.12091080  0.70982969  0.52367675    -0.60600
H1127       H  0.13588435  0.70419552  0.53275193     0.43400
H1128       H  0.01066746  0.58528901  0.52801563     0.43400
C1129       C  0.49302003  0.72962173  0.52522479    -0.05700
C1130       C  0.47262042  0.72829165  0.49936793    -0.33100
C1131       C  0.98128672  0.75272668  0.47671924     0.36100
C1132       C  0.01100052  0.77873750  0.47952509    -0.06100
C1133       C  0.03054942  0.78086445  0.50682870    -0.33000
C1134       C  0.02183510  0.75656741  0.52958722     0.36000
H1135       H  0.44992465  0.70814442  0.49640494     0.16400
O1136       O  0.46135300  0.74994833  0.45060856    -0.60500
H1137       H  0.05335167  0.80090313  0.50965796     0.16400
O1138       O  0.04237777  0.75886399  0.55469421    -0.60600
H1139       H  0.03990769  0.77053150  0.57418681     0.43400
H1140       H  0.44908135  0.75868986  0.46055856     0.43400
C1141       C  0.41358266  0.57441105  0.50117185    -0.05700
C1142       C  0.42188262  0.55173150  0.49639581    -0.33100
C1143       C  0.41169507  0.53186865  0.46735722     0.36100
C1144       C  0.39268070  0.53415086  0.44188380    -0.06100
C1145       C  0.38549163  0.55769243  0.44585107    -0.33000
C1146       C  0.39570223  0.57759088  0.47488506     0.36000
H1147       H  0.43590187  0.54878518  0.51571840     0.16400
O1148       O  0.41959309  0.50956824  0.46501576    -0.60500
H1149       H  0.37072477  0.56003702  0.42704159     0.16400
O1150       O  0.38688349  0.59918911  0.47782996    -0.60600
H1151       H  0.40295694  0.61735722  0.46501297     0.43400
H1152       H  0.43924750  0.51905212  0.45155075     0.43400
C1153       C  0.06984079  0.78472963  0.84534634    -0.05700
C1154       C  0.04817420  0.79231868  0.85825993    -0.33100
C1155       C  0.05449613  0.82279186  0.85784681     0.36100
C1156       C  0.08261502  0.84613927  0.84387671    -0.06100
C1157       C  0.10226000  0.83772659  0.82679380    -0.33000
C1158       C  0.09616947  0.80735453  0.82770957     0.36000
H1159       H  0.02776090  0.77519027  0.87199707     0.16400
O1160       O  0.03493879  0.83009910  0.87510297    -0.60500
H1161       H  0.12435741  0.85540327  0.81658620     0.16400
O1162       O  0.11744489  0.80070585  0.81400678    -0.60600
H1163       H  0.10980269  0.79257287  0.79021276     0.43400
H1164       H  0.04111688  0.83243785  0.90002994     0.43400
C1165       C  0.14803298  0.52630906  0.94037858    -0.05700
C1166       C  0.17464696  0.55568202  0.93847632    -0.33100
C1167       C  0.18428818  0.57610729  0.96699770     0.36100
C1168       C  0.16720000  0.56770947  0.99862385    -0.06100
C1169       C  0.13984142  0.53883879  0.00000457    -0.33000
C1170       C  0.13024545  0.51835969  0.97148690     0.36000
H1171       H  0.18893777  0.56257751  0.91511295     0.16400
O1172       O  0.21092960  0.60395102  0.96372195    -0.60500
H1173       H  0.12602298  0.53159810  0.02371908     0.16400
O1174       O  0.10452899  0.48987045  0.97535173    -0.60600
H1175       H  0.08674383  0.49277247  0.97045756     0.43400
H1176       H  0.22787974  0.60001598  0.96960401     0.43400
C1177       C  0.23058538  0.98384725  0.97018897    -0.05700
C1178       C  0.24279294  0.96518668  0.97965972    -0.33100
C1179       C  0.26904910  0.47665257  0.00037660     0.36100
C1180       C  0.28324571  0.50708986  0.01230566    -0.06100
C1181       C  0.27158960  0.02600538  0.00197668    -0.33000
C1182       C  0.24539340  0.01460007  0.98127340     0.39600
H1183       H  0.23233061  0.94170618  0.97051017     0.16400
O1184       O  0.28036176  0.45783696  0.00904499    -0.60500
H1185       H  0.28205661  0.54950778  0.01105693     0.16400
O1186       O  0.23452090  0.03372318  0.97221262    -0.60600
H1187       H  0.21962379  0.03119543  0.99093940     0.43400
H1188       H  0.29599855  0.46145092  0.99073968     0.43400
C1189       C  0.07737252  0.89961594  0.98655862    -0.05700
C1190       C  0.05323477  0.90616131  0.98982757    -0.33100
C1191       C  0.03452463  0.89810205  0.02006313     0.36100
C1192       C  0.03944708  0.88295973  0.04819265    -0.06100
C1193       C  0.06407315  0.87709128  0.04519543    -0.33000
C1194       C  0.08278232  0.88517184  0.01499640     0.36000
H1195       H  0.04863612  0.91751152  0.96868991     0.16400
O1196       O  0.01081935  0.90427172  0.02114807    -0.60500
H1197       H  0.06818963  0.86494445  0.06581238     0.16400
O1198       O  0.10514806  0.87715145  0.01287687    -0.60600
H1199       H  0.12312906  0.89350318  0.02564294     0.43400
H1200       H  0.01987201  0.92498837  0.03181259     0.43400
C1201       C  0.17096337  0.59217815  0.50093185    -0.05700
C1202       C  0.18807301  0.59904582  0.46954050    -0.33100
C1203       C  0.17874281  0.60792940  0.43921570     0.36100
C1204       C  0.15154045  0.60994928  0.43945675    -0.06100
C1205       C  0.13363574  0.60151599  0.47028036    -0.33000
C1206       C  0.14293915  0.59268617  0.50052993     0.36000
H1207       H  0.20926377  0.59822177  0.46856257     0.16400
O1208       O  0.19671696  0.61494029  0.40963662    -0.60500
H1209       H  0.11275495  0.60290176  0.47156249     0.16400
O1210       O  0.12465149  0.58543465  0.52985414    -0.60600
H1211       H  0.11003813  0.56304519  0.52814133     0.43400
H1212       H  0.21406840  0.63622759  0.41335360     0.43400
C1213       C  0.35634672  0.57892011  0.63901503    -0.05700
C1214       C  0.33536043  0.54967739  0.62591884    -0.33100
C1215       C  0.30362063  0.53981343  0.62391634     0.36100
C1216       C  0.29279423  0.55971730  0.63428479    -0.06100
C1217       C  0.31305048  0.58672629  0.65216534    -0.33000
C1218       C  0.34449194  0.59618453  0.65498534     0.36000
H1219       H  0.34387873  0.53601709  0.61348388     0.16400
O1220       O  0.28423762  0.51244338  0.60776272    -0.60500
H1221       H  0.30500318  0.60165332  0.66186175     0.16400
O1222       O  0.36417165  0.62400674  0.67017651    -0.60600
H1223       H  0.36546425  0.63966367  0.65354454     0.43400
H1224       H  0.27564340  0.49719154  0.62696741     0.43400
C1225       C  0.15814705  0.51279279  0.71048383    -0.05700
C1226       C  0.12805405  0.99299125  0.72313061    -0.33100
C1227       C  0.12320975  0.98167006  0.75775992     0.36100
C1228       C  0.14873216  0.99014901  0.78000622    -0.06100
C1229       C  0.17841557  0.01168458  0.76764559    -0.33000
C1230       C  0.18322211  0.52263697  0.73345321     0.36000
H1231       H  0.10851634  0.98493941  0.70565098     0.16400
O1232       O  0.09381703  0.96095954  0.76866353    -0.60500
H1233       H  0.19846656  0.01961921  0.78430396     0.16400
O1234       O  0.21281646  0.54287363  0.72245026    -0.60600
H1235       H  0.22251784  0.53021306  0.71793733     0.43400
H1236       H  0.08547686  0.97356463  0.77851474     0.43400
C1237       C  0.09518653  0.92818086  0.48718941    -0.05700
C1238       C  0.10133366  0.91851817  0.51908109    -0.33100
C1239       C  0.11067015  0.93743614  0.54888863     0.36100
C1240       C  0.11456730  0.96719831  0.54761068    -0.06100
C1241       C  0.10651959  0.97617660  0.51641943    -0.33000
C1242       C  0.09692970  0.95708859  0.48655932     0.36000
H1243       H  0.09958321  0.89629360  0.52091061     0.16400
O1244       O  0.11709633  0.92684991  0.57880936    -0.60500
H1245       H  0.10900961  0.99872037  0.51451636     0.16400
O1246       O  0.08956817  0.96717502  0.45687981    -0.60600
H1247       H  0.10960235  0.98071864  0.44506735     0.43400
H1248       H  0.09721911  0.91611070  0.59180578     0.43400
C1249       C  0.23578637  0.50654036  0.51458742    -0.05700
C1250       C  0.23493884  0.97919234  0.52333276    -0.33100
C1251       C  0.25133590  0.96893426  0.50351509     0.36100
C1252       C  0.26884321  0.98621147  0.47455927    -0.06100
C1253       C  0.26943746  0.01341892  0.46568276    -0.33000
C1254       C  0.25311589  0.52370157  0.48552899     0.36000
H1255       H  0.22254434  0.96633912  0.54639608     0.16400
O1256       O  0.25103907  0.94268223  0.51337029    -0.60500
H1257       H  0.28196188  0.02643077  0.44276032     0.16400
O1258       O  0.25363501  0.55012193  0.47591678    -0.60600
H1259       H  0.27404126  0.56711586  0.48362877     0.43400
H1260       H  0.23077936  0.92555784  0.50549770     0.43400
C1261       C  0.39821034  0.85165576  0.93964368    -0.05700
C1262       C  0.40307346  0.82659236  0.93761948    -0.33100
C1263       C  0.41346796  0.81744161  0.96658911     0.36100
C1264       C  0.41851771  0.83294044  0.99891833    -0.06100
C1265       C  0.41618562  0.85966109  0.99995279    -0.33000
C1266       C  0.40636521  0.86914495  0.97063902     0.36000
H1267       H  0.39687274  0.81278178  0.91401484     0.16400
O1268       O  0.41666498  0.79211553  0.96340354    -0.60500
H1269       H  0.42067188  0.87261370  0.02403686     0.16400
O1270       O  0.40150987  0.89346015  0.97391310    -0.60600
H1271       H  0.42142171  0.91172426  0.96703835     0.43400
H1272       H  0.43829946  0.80014427  0.95549931     0.43400
C1273       C  0.22983686  0.72016581  0.01692932    -0.05700
C1274       C  0.23918401  0.74992815  0.02855292    -0.33100
C1275       C  0.25567332  0.77483795  0.00635364     0.36100
C1276       C  0.26242259  0.76982603  0.97187756    -0.06100
C1277       C  0.25189138  0.73975776  0.96015620    -0.33000
C1278       C  0.23567872  0.71501087  0.98242729     0.36000
H1279       H  0.23530324  0.75403824  0.05548951     0.16400
O1280       O  0.26570246  0.80384692  0.01893669    -0.60500
H1281       H  0.25642932  0.73526133  0.93372191     0.16400
O1282       O  0.22555224  0.68582037  0.97035349    -0.60600
H1283       H  0.24406497  0.68349165  0.97014015     0.43400
H1284       H  0.28639958  0.81065900  0.02897569     0.43400
C1285       C  0.22097065  0.77014465  0.84695556    -0.05700
C1286       C  0.19953849  0.77603929  0.83083859    -0.33100
C1287       C  0.16812816  0.75352893  0.83037057     0.36100
C1288       C  0.15772958  0.72513117  0.84729494    -0.06100
C1289       C  0.17970630  0.71788204  0.85912187    -0.33000
C1290       C  0.21128007  0.74017267  0.85869215     0.36000
H1291       H  0.20665966  0.79890867  0.82151139     0.16400
O1292       O  0.14718359  0.76080904  0.81735429    -0.60500
H1293       H  0.17226138  0.69644708  0.87266961     0.16400
O1294       O  0.23189651  0.73374138  0.87432795    -0.60600
H1295       H  0.24083790  0.72754147  0.85492392     0.43400
H1296       H  0.14519574  0.77368431  0.83569915     0.43400
C1297       C  0.23190294  0.93209013  0.85234645    -0.05700
C1298       C  0.26218213  0.95318623  0.86348202    -0.33100
C1299       C  0.28549654  0.94543480  0.86278546     0.36100
C1300       C  0.27872194  0.91643772  0.85036629    -0.06100
C1301       C  0.25002301  0.89768501  0.83402815    -0.33000
C1302       C  0.22644376  0.90488976  0.83578013     0.36000
H1303       H  0.26696952  0.97435300  0.87621769     0.16400
O1304       O  0.31304418  0.96428285  0.87911110    -0.60500
H1305       H  0.24444026  0.87533002  0.82407168     0.16400
O1306       O  0.19764995  0.88433720  0.82317175    -0.60600
H1307       H  0.18818355  0.86784258  0.84097855     0.43400
H1308       H  0.32747857  0.97657299  0.86003781     0.43400
C1309       C  0.34194463  0.92325862  0.98998063    -0.05700
C1310       C  0.37263220  0.94769051  0.99377198    -0.33100
C1311       C  0.38191941  0.96696121  0.02339773     0.36100
C1312       C  0.36045169  0.96225430  0.05024312    -0.06100
C1313       C  0.33044609  0.93650210  0.04752802    -0.33000
C1314       C  0.32114022  0.91733020  0.01797438     0.36000
H1315       H  0.38947344  0.95251769  0.97321726     0.16400
O1316       O  0.41168426  0.99110184  0.02490797    -0.60500
H1317       H  0.31336223  0.93183609  0.06773426     0.16400
O1318       O  0.29146360  0.89295178  0.01683342    -0.60600
H1319       H  0.27882670  0.90140932  0.00769406     0.43400
H1320       H  0.42323198  0.98331974  0.03826826     0.43400
C1321       C  0.34178212  0.90705097  0.49230187    -0.05700
C1322       C  0.32240794  0.89672282  0.52196936    -0.33100
C1323       C  0.32997211  0.88528533  0.55138046     0.36100
C1324       C  0.35732796  0.88362213  0.55183619    -0.06100
C1325       C  0.37798857  0.89628389  0.52355911    -0.33000
C1326       C  0.37056598  0.90801244  0.49415006     0.36000
H1327       H  0.30061308  0.89639260  0.52200860     0.16400
O1328       O  0.30951690  0.87424419  0.57890590    -0.60500
H1329       H  0.39907584  0.89523844  0.52311617     0.16400
O1330       O  0.39108261  0.91890398  0.46669824    -0.60600
H1331       H  0.40537241  0.94089347  0.47216679     0.43400
H1332       H  0.31757607  0.89118875  0.59619119     0.43400
C1333       C  0.23034883  0.72115675  0.47562177    -0.05700
C1334       C  0.22749601  0.73634878  0.50483113    -0.33100
C1335       C  0.25160909  0.75106681  0.52818090     0.36100
C1336       C  0.27898518  0.75002234  0.52295034    -0.06100
C1337       C  0.28116034  0.73331008  0.49469225    -0.33000
C1338       C  0.25704789  0.71897072  0.47091983     0.36000
H1339       H  0.20691572  0.73798537  0.50881997     0.16400
O1340       O  0.24819873  0.76681296  0.55558674    -0.60500
H1341       H  0.30173242  0.73170446  0.49062907     0.16400
O1342       O  0.26038065  0.70408825  0.44254404    -0.60600
H1343       H  0.27118244  0.72018004  0.42454695     0.43400
H1344       H  0.25596115  0.78790816  0.54665466     0.43400
C1345       C  0.23426483  0.64606620  0.64468817    -0.05700
C1346       C  0.22767322  0.66921489  0.63650153    -0.33100
C1347       C  0.25104573  0.70024583  0.63769369     0.36100
C1348       C  0.28156833  0.70834738  0.64662217    -0.06100
C1349       C  0.28720811  0.68553508  0.65877001    -0.33000
C1350       C  0.26370252  0.65462363  0.65827503     0.36000
H1351       H  0.20554339  0.66318026  0.62513678     0.16400
O1352       O  0.24487922  0.72195688  0.62499452    -0.60500
H1353       H  0.31051027  0.69133394  0.66561206     0.16400
O1354       O  0.27073644  0.63253732  0.66701970    -0.60600
H1355       H  0.28285628  0.63162129  0.64690491     0.43400
H1356       H  0.24227845  0.73203564  0.64603375     0.43400
C1357       C  0.36339601  0.86147699  0.78123789    -0.05700
C1358       C  0.38099020  0.84787457  0.77201519    -0.33100
C1359       C  0.38613224  0.84385397  0.73679666     0.36100
C1360       C  0.37276830  0.85264921  0.71035996    -0.06100
C1361       C  0.35639592  0.86750518  0.71959605    -0.33000
C1362       C  0.35201810  0.87232175  0.75474431     0.36000
H1363       H  0.38969885  0.83923623  0.79219882     0.16400
O1364       O  0.40149329  0.82854200  0.72862083    -0.60500
H1365       H  0.34575662  0.87413950  0.69947542     0.16400
O1366       O  0.33389479  0.88473128  0.76289222    -0.60600
H1367       H  0.34843208  0.90714991  0.76451987     0.43400
H1368       H  0.42356131  0.84474738  0.72648288     0.43400
C1369       C  0.43176788  0.77257130  0.64293719    -0.05700
C1370       C  0.41473545  0.74587935  0.66321001    -0.33100
C1371       C  0.42323217  0.72336010  0.66456505     0.36100
C1372       C  0.44939200  0.72760060  0.64606644    -0.06100
C1373       C  0.46890204  0.75615852  0.63022698    -0.33000
C1374       C  0.46018559  0.77859153  0.62843703     0.36000
H1375       H  0.39264142  0.74070157  0.67429638     0.16400
O1376       O  0.40386308  0.69589970  0.68048966    -0.60500
H1377       H  0.48907590  0.75968288  0.61564171     0.16400
O1378       O  0.47740514  0.80430765  0.60846379    -0.60600
H1379       H  0.47056953  0.79794599  0.58416436     0.43400
H1380       H  0.41334955  0.69707134  0.70344932     0.43400
C1381       C  0.47096980  0.85020945  0.43943088    -0.05700
C1382       C  0.44534506  0.82018960  0.44184198    -0.33100
C1383       C  0.42648671  0.81009730  0.47191524     0.36100
C1384       C  0.43295028  0.82999948  0.50076704    -0.06100
C1385       C  0.45763918  0.86042100  0.49761512    -0.33000
C1386       C  0.47641724  0.87052986  0.46757471     0.36000
H1387       H  0.44047605  0.80389817  0.42084164     0.16400
O1388       O  0.40232030  0.78045056  0.47299576    -0.60500
H1389       H  0.46308602  0.87649641  0.51899396     0.16400
O1390       O  0.50098478  0.89997590  0.46695760    -0.60600
H1391       H  0.49288170  0.91233741  0.45619008     0.43400
H1392       H  0.38437632  0.78131281  0.46349899     0.43400
Fe1393     Fe  0.82559573  0.30186790  0.61644457     1.65800
Fe1394     Fe  0.90418971  0.34019936  0.60678905     1.73200
Fe1395     Fe  0.86015414  0.26728769  0.57631606     1.54400
O1396       O  0.82342821  0.23671179  0.60825032    -0.81900
O1397       O  0.91908559  0.34034041  0.55650490    -0.80200
O1398       O  0.81134133  0.26291590  0.64607394    -0.84400
O1399       O  0.79983116  0.27471805  0.57606033    -0.79300
O1400       O  0.88996079  0.26561433  0.61062226    -0.81000
O1401       O  0.88756339  0.36820065  0.58637023    -0.83800
C1402       C  0.80455427  0.26487409  0.54762543     0.97000
C1403       C  0.80764753  0.23779938  0.63398944     1.04400
O1404       O  0.86359850  0.30316939  0.60028637    -1.12800
O1405       O  0.89527086  0.34587116  0.65852677    -0.75200
O1406       O  0.84481295  0.32859522  0.65990304    -0.78700
O1407       O  0.82997045  0.26646243  0.54050169    -0.79400
C1408       C  0.87114651  0.34207520  0.67401529     0.95900
O1409       O  0.83593604  0.33927067  0.58648297    -0.77300
O1410       O  0.92389002  0.31426371  0.62548006    -0.82500
C1411       C  0.91455490  0.32000180  0.53409895     0.98500
C1412       C  0.91427737  0.28540736  0.62600930     1.04400
O1413       O  0.89514337  0.29185616  0.53952550    -0.78200
C1414       C  0.86075567  0.36305222  0.57710570     1.02700
Fe1415     Fe  0.81509438  0.31559342  0.87719406     1.65800
Fe1416     Fe  0.85114862  0.39378022  0.88381937     1.73200
Fe1417     Fe  0.77915961  0.34855770  0.91700010     1.54400
O1418       O  0.74877516  0.31097090  0.88615161    -0.81900
O1419       O  0.85252043  0.40949143  0.93404763    -0.80200
O1420       O  0.77577439  0.30026169  0.84762191    -0.84400
O1421       O  0.78788771  0.28969372  0.91834038    -0.79300
O1422       O  0.77499341  0.37622918  0.88230340    -0.81000
O1423       O  0.88116183  0.37916041  0.90316155    -0.83800
C1424       C  0.77847314  0.29499831  0.94692318     0.97000
C1425       C  0.75028434  0.29589577  0.86002329     1.04400
O1426       O  0.81520030  0.35295816  0.89219004    -1.12800
O1427       O  0.85526187  0.38376131  0.83211205    -0.75200
O1428       O  0.84206935  0.33467736  0.83336569    -0.78700
O1429       O  0.78091843  0.32058056  0.95357930    -0.79400
C1430       C  0.85334242  0.36016204  0.81782841     0.95900
O1431       O  0.85301047  0.32786769  0.90696986    -0.77300
O1432       O  0.82304520  0.41154702  0.86606738    -0.82500
C1433       C  0.83216274  0.40459043  0.95690042     0.98500
C1434       C  0.79368386  0.40062978  0.86642758     1.04400
O1435       O  0.80392542  0.38450388  0.95218416    -0.78200
C1436       C  0.87677869  0.35332371  0.91434703     1.02700
Fe1437     Fe  0.69282608  0.00904924  0.60872401     1.65800
Fe1438     Fe  0.66164379  0.05463950  0.60702792     1.73200
Fe1439     Fe  0.73242789  0.07922200  0.57268123     1.54400
O1440       O  0.76136083  0.07825674  0.61085087    -0.81900
O1441       O  0.66742973  0.08025416  0.56199838    -0.80200
O1442       O  0.73970520  0.02799673  0.61961745    -0.84400
O1443       O  0.70040335  0.00125072  0.55831047    -0.79300
O1444       O  0.73194858  0.11417447  0.59976310    -0.81000
O1445       O  0.63345600  0.01644720  0.57574311    -0.83800
C1446       C  0.72330160  0.01933731  0.53956937     0.97000
C1447       C  0.76270409  0.05509331  0.62159472     1.04400
O1448       O  0.69607058  0.04804795  0.59670739    -1.12800
O1449       O  0.65014774  0.02928717  0.65437141    -0.75200
O1450       O  0.68546264  0.01508432  0.65973783    -0.78700
O1451       O  0.73794033  0.04814689  0.54374552    -0.79400
C1452       C  0.66470775  0.01953357  0.67267812     0.95900
O1453       O  0.64572243  0.48425472  0.59904552    -0.77300
O1454       O  0.69079990  0.09476272  0.63556354    -0.82500
C1455       C  0.68220047  0.08422836  0.53344822     0.98500
C1456       C  0.71749501  0.11641586  0.62597252     1.04400
O1457       O  0.70618259  0.08164649  0.53206814    -0.78200
C1458       C  0.63146560  0.49028972  0.57601492     1.02700
Fe1459     Fe  0.68417921  0.48349274  0.87851800     1.65800
Fe1460     Fe  0.60643066  0.43887265  0.88048658     1.73200
Fe1461     Fe  0.65141537  0.41275554  0.91289686     1.54400
O1462       O  0.68069630  0.41336415  0.87378478    -0.81900
O1463       O  0.58596832  0.41328552  0.92590429    -0.80200
O1464       O  0.71081313  0.46370071  0.86615422    -0.84400
O1465       O  0.69956976  0.48989891  0.92867275    -0.79300
O1466       O  0.61487534  0.37856817  0.88645433    -0.81000
O1467       O  0.61762865  0.47709475  0.91194412    -0.83800
C1468       C  0.70455094  0.47154243  0.94594811     0.97000
C1469       C  0.70598912  0.43651526  0.86375005     1.04400
O1470       O  0.64729576  0.44465479  0.89001043    -1.12800
O1471       O  0.62125636  0.46492350  0.83345656    -0.75200
O1472       O  0.67100624  0.47933751  0.82768428    -0.78700
O1473       O  0.68928194  0.44279181  0.94134318    -0.79400
C1474       C  0.64639738  0.47698335  0.81561344     0.95900
O1475       O  0.66368635  0.00934282  0.89016027    -0.77300
O1476       O  0.59377233  0.39854283  0.85160684    -0.82500
C1477       C  0.59658195  0.40816142  0.95370356     0.98500
C1478       C  0.59769776  0.37644946  0.86113264     1.04400
O1479       O  0.62305296  0.41040224  0.95418067    -0.78200
C1480       C  0.64237658  0.00312490  0.91233853     1.02700
Fe1481     Fe  0.99625987  0.18075700  0.61738145     1.65800
Fe1482     Fe  0.95297304  0.10287787  0.60671583     1.73200
Fe1483     Fe  0.92800613  0.14934131  0.57559014     1.54400
O1484       O  0.93558420  0.18642010  0.60741476    -0.81900
O1485       O  0.93845798  0.08843547  0.55640780    -0.80200
O1486       O  0.97175172  0.19559911  0.64718753    -0.84400
O1487       O  0.99669768  0.20797594  0.57764768    -0.79300
O1488       O  0.89453969  0.12057644  0.60906357    -0.81000
O1489       O  0.99799470  0.11807895  0.58645160    -0.83800
C1490       C  0.98294037  0.20368215  0.54878165     0.97000
C1491       C  0.95176751  0.20102474  0.63395261     1.04400
O1492       O  0.95873348  0.14397121  0.60054442    -1.12800
O1493       O  0.96708103  0.11068088  0.65855699    -0.75200
O1494       O  0.00247740  0.16017119  0.66029759    -0.78700
O1495       O  0.95973949  0.17828371  0.54058288    -0.79400
C1496       C  0.98851033  0.13384590  0.67403298     0.95900
O1497       O  0.52266384  0.16947744  0.58703008    -0.77300
O1498       O  0.90659923  0.08506150  0.62462212    -0.82500
C1499       C  0.92331350  0.09362831  0.53389052     0.98500
C1500       C  0.88812186  0.09577560  0.62421354     1.04400
O1501       O  0.91616765  0.11420174  0.53886989    -0.78200
C1502       C  0.52041690  0.14442026  0.57707860     1.02700
Fe1503     Fe  0.52077999  0.19103171  0.87422825     1.65800
Fe1504     Fe  0.56226085  0.15441868  0.88273811     1.73200
Fe1505     Fe  0.58933379  0.22624849  0.91583151     1.54400
O1506       O  0.58392520  0.25688400  0.88333887    -0.81900
O1507       O  0.57847026  0.15454784  0.93201733    -0.80200
O1508       O  0.54600839  0.23034659  0.84495063    -0.84400
O1509       O  0.52102361  0.21795978  0.91433094    -0.79300
O1510       O  0.62254443  0.22899117  0.88295188    -0.81000
O1511       O  0.51798157  0.12587336  0.90501009    -0.83800
C1512       C  0.53521759  0.22805993  0.94281570     0.97000
C1513       C  0.56727056  0.25561863  0.85739767     1.04400
O1514       O  0.55781258  0.19059531  0.89032649    -1.12800
O1515       O  0.54633032  0.14740948  0.83162672    -0.75200
O1516       O  0.51333602  0.16445153  0.83061558    -0.78700
O1517       O  0.55846306  0.22591358  0.95063939    -0.79400
C1518       C  0.52577804  0.15068931  0.81649291     0.95900
O1519       O  0.99407437  0.15335704  0.90428803    -0.77300
O1520       O  0.60761309  0.18181761  0.86239185    -0.82500
C1521       C  0.59169462  0.17369659  0.95637424     0.98500
C1522       C  0.62713162  0.21064247  0.86464500     1.04400
O1523       O  0.59830571  0.20142353  0.95324688    -0.78200
C1524       C  0.99593766  0.13041678  0.91439590     1.02700
Fe1525     Fe  0.68690155  0.18553795  0.37752938     1.65800
Fe1526     Fe  0.65821945  0.22517061  0.41785753     1.73200
Fe1527     Fe  0.60950833  0.15585323  0.38319364     1.54400
O1528       O  0.62233206  0.14460517  0.33492952    -0.81900
O1529       O  0.62954522  0.19880840  0.45852023    -0.80200
O1530       O  0.67215563  0.17930575  0.32720278    -0.84400
O1531       O  0.66364555  0.13865179  0.38608198    -0.79300
O1532       O  0.59801028  0.18556350  0.35738888    -0.81000
O1533       O  0.69448938  0.22815453  0.44515474    -0.83800
C1534       C  0.64425415  0.12532775  0.41055793     0.97000
C1535       C  0.64685650  0.15723513  0.31610988     1.04400
O1536       O  0.65154007  0.18937719  0.39213418    -1.12800
O1537       O  0.68833700  0.25471687  0.37999822    -0.75200
O1538       O  0.71590408  0.23232453  0.36801537    -0.78700
O1539       O  0.61995159  0.12733680  0.41220605    -0.79400
C1540       C  0.71272285  0.25578018  0.36836380     0.95900
O1541       O  0.70320596  0.19116070  0.42710820    -0.77300
O1542       O  0.62290225  0.22632571  0.39279948    -0.82500
C1543       C  0.60249012  0.17549853  0.45807068     0.98500
C1544       C  0.60428639  0.21222726  0.36799160     1.04400
O1545       O  0.59065094  0.16089964  0.42984771    -0.78200
C1546       C  0.70767870  0.21245702  0.44799168     1.02700
Fe1547     Fe  0.69283010  0.17413875  0.11408578     1.65800
Fe1548     Fe  0.72908208  0.14336711  0.06906677     1.73200
Fe1549     Fe  0.65914787  0.09710292  0.10547261     1.54400
O1550       O  0.64823717  0.10917787  0.15420419    -0.81900
O1551       O  0.70135349  0.11464479  0.02908761    -0.80200
O1552       O  0.68558841  0.15727272  0.16361992    -0.84400
O1553       O  0.64580408  0.15363408  0.10439114    -0.79300
O1554       O  0.68818644  0.08419307  0.13043132    -0.81000
O1555       O  0.73233574  0.17962958  0.04178409    -0.83800
C1556       C  0.63158969  0.13492744  0.07967850     0.97000
C1557       C  0.66342015  0.13207229  0.17440299     1.04400
O1558       O  0.69423997  0.13831663  0.09658104    -1.12800
O1559       O  0.76100369  0.17325360  0.10535460    -0.75200
O1560       O  0.73973209  0.20004571  0.12493012    -0.78700
O1561       O  0.63182037  0.10985070  0.07747377    -0.79400
C1562       C  0.76287669  0.19639915  0.12112555     0.95900
O1563       O  0.70074206  0.19386537  0.06604516    -0.77300
O1564       O  0.72936994  0.10788706  0.09456104    -0.82500
C1565       C  0.67777458  0.08790256  0.03057430     0.98500
C1566       C  0.71477788  0.08964454  0.11956426     1.04400
O1567       O  0.66288048  0.07750030  0.05899295    -0.78200
C1568       C  0.71967168  0.19594610  0.04263990     1.02700
Fe1569     Fe  0.81428936  0.48571191  0.38129351     1.65800
Fe1570     Fe  0.77848895  0.41577756  0.41880122     1.73200
Fe1571     Fe  0.85090020  0.44493105  0.38552480     1.54400
O1572       O  0.85982628  0.46769444  0.33661036    -0.81900
O1573       O  0.80558579  0.41523386  0.45978559    -0.80200
O1574       O  0.82325612  0.48020200  0.33076531    -0.84400
O1575       O  0.86069291  0.01428165  0.39155466    -0.79300
O1576       O  0.82480045  0.40250373  0.35958614    -0.81000
O1577       O  0.77027430  0.44544875  0.44720368    -0.83800
C1578       C  0.87655740  0.01012106  0.41417391     0.97000
C1579       C  0.84439667  0.47625807  0.31800761     1.04400
O1580       O  0.81416158  0.44829156  0.39460580    -1.12800
O1581       O  0.74795266  0.41386032  0.38049992    -0.75200
O1582       O  0.76764441  0.46350879  0.36955271    -0.78700
O1583       O  0.87697463  0.48513596  0.41463935    -0.79400
C1584       C  0.74541094  0.43602274  0.36854554     0.95900
O1585       O  0.80494796  0.49304262  0.43111581    -0.77300
O1586       O  0.78183004  0.38216425  0.39255798    -0.82500
C1587       C  0.83119989  0.41555753  0.45961396     0.98500
C1588       C  0.79861699  0.37993371  0.36910340     1.04400
O1589       O  0.84783453  0.42234594  0.43215321    -0.78200
C1590       C  0.78278531  0.47426672  0.45027701     1.02700
Fe1591     Fe  0.82533089  0.00711049  0.10860978     1.65800
Fe1592     Fe  0.85962711  0.07741412  0.07275229     1.73200
Fe1593     Fe  0.90349022  0.05094460  0.10815458     1.54400
O1594       O  0.88762231  0.02658547  0.15605183    -0.81900
O1595       O  0.88892870  0.07896453  0.03318730    -0.80200
O1596       O  0.83758840  0.01169759  0.15987465    -0.84400
O1597       O  0.84521430  0.48051226  0.09945096    -0.79300
O1598       O  0.91741209  0.09286156  0.13473903    -0.81000
O1599       O  0.82309128  0.04747092  0.04307170    -0.83800
C1600       C  0.86668275  0.48584207  0.07796227     0.97000
C1601       C  0.86212571  0.01476086  0.17319216     1.04400
O1602       O  0.86288832  0.04563009  0.09726117    -1.12800
O1603       O  0.82909949  0.07757870  0.10988295    -0.75200
O1604       O  0.79907368  0.02749993  0.11914480    -0.78700
O1605       O  0.89184242  0.01149330  0.07849240    -0.79400
C1606       C  0.80376524  0.05465292  0.12027614     0.95900
O1607       O  0.81073814  0.00010128  0.05778147    -0.77300
O1608       O  0.89531325  0.11167083  0.09971016    -0.82500
C1609       C  0.91482622  0.07999538  0.03419253     0.98500
C1610       C  0.91333134  0.11472024  0.12443555     1.04400
O1611       O  0.92478196  0.07466626  0.06228030    -0.78200
C1612       C  0.80762540  0.01876009  0.03863241     1.02700
Fe1613     Fe  0.99775539  0.30901334  0.11180566     1.65800
Fe1614     Fe  0.92956763  0.27051765  0.07023918     1.73200
Fe1615     Fe  0.95130044  0.33955214  0.10625360     1.54400
O1616       O  0.97469795  0.35035446  0.15445743    -0.81900
O1617       O  0.92843892  0.29788478  0.03057009    -0.80200
O1618       O  0.98828298  0.31497398  0.16205154    -0.84400
O1619       O  0.52242212  0.35584892  0.10269032    -0.79300
O1620       O  0.90938224  0.30973632  0.13195980    -0.81000
O1621       O  0.96298527  0.26805998  0.04205630    -0.83800
C1622       C  0.51676510  0.36896283  0.07793324     0.97000
C1623       C  0.98362294  0.33580016  0.17378063     1.04400
O1624       O  0.95898685  0.30574263  0.09679557    -1.12800
O1625       O  0.92906853  0.23989971  0.10690358    -0.75200
O1626       O  0.97868935  0.26222176  0.12178672    -0.78700
O1627       O  0.99089502  0.36794829  0.07705090    -0.79400
C1628       C  0.95168385  0.23879535  0.12040094     0.95900
O1629       O  0.00910269  0.30320321  0.06253412    -0.77300
O1630       O  0.89295791  0.26907504  0.09622123    -0.82500
C1631       C  0.92540813  0.32137076  0.03165774     0.98500
C1632       C  0.88859608  0.28313416  0.12125468     1.04400
O1633       O  0.92770162  0.33523519  0.06024063    -0.78200
C1634       C  0.99224208  0.28302476  0.04050370     1.02700
Fe1635     Fe  0.51576536  0.31785674  0.37935152     1.65800
Fe1636     Fe  0.58472804  0.35249405  0.41945618     1.73200
Fe1637     Fe  0.55902061  0.39512029  0.38088628     1.54400
O1638       O  0.53368362  0.37901149  0.33389495    -0.81900
O1639       O  0.58475703  0.38172205  0.45804993    -0.80200
O1640       O  0.52331656  0.33094244  0.32853102    -0.84400
O1641       O  0.98906073  0.33805738  0.38720737    -0.79300
O1642       O  0.60040860  0.40711332  0.35393065    -0.81000
O1643       O  0.55318953  0.31658242  0.44872967    -0.83800
C1644       C  0.99409080  0.35805109  0.41046015     0.97000
C1645       C  0.52341368  0.35420195  0.31632709     1.04400
O1646       O  0.55363498  0.35509429  0.39266327    -1.12800
O1647       O  0.58670576  0.32231046  0.38361601    -0.75200
O1648       O  0.53707874  0.29211623  0.37022445    -0.78700
O1649       O  0.51958245  0.38339657  0.41066055    -0.79400
C1650       C  0.56476163  0.29753362  0.37085424     0.95900
O1651       O  0.50612676  0.30283470  0.42951066    -0.77300
O1652       O  0.61973419  0.38789167  0.39256512    -0.82500
C1653       C  0.58731102  0.40799369  0.45528427     0.98500
C1654       C  0.62235597  0.40354186  0.36555558     1.04400
O1655       O  0.58377121  0.41757049  0.42592916    -0.78200
C1656       C  0.52401710  0.30113209  0.45133950     1.02700
C1657       C  0.51001902  0.35112905  0.28106136    -0.05700
C1658       C  0.52019564  0.37652397  0.25872199    -0.33100
C1659       C  0.50985151  0.37244144  0.22389027     0.36100
C1660       C  0.98921659  0.34273293  0.21132539    -0.06100
C1661       C  0.97729017  0.31793406  0.23440032    -0.33000
C1662       C  0.48731356  0.32185544  0.26891126     0.36000
H1663       H  0.53726125  0.39922131  0.26768214     0.16400
O1664       O  0.52203910  0.39709337  0.20168358    -0.60500
H1665       H  0.96096282  0.29503424  0.22517879     0.16400
O1666       O  0.47470748  0.29677640  0.29059217    -0.60600
H1667       H  0.98493950  0.28498333  0.28394328     0.43400
H1668       H  0.50777884  0.40530455  0.20330832     0.43400
C1669       C  0.92899141  0.14587002  0.13996246    -0.05700
C1670       C  0.95855810  0.16732745  0.12746245    -0.33100
C1671       C  0.96753762  0.19852939  0.12407894     0.36100
C1672       C  0.94661658  0.20861726  0.13285817    -0.06100
C1673       C  0.91862245  0.18784793  0.14915574    -0.33000
C1674       C  0.90987926  0.15685332  0.15296760     0.36000
H1675       H  0.97324700  0.15938888  0.11632291     0.16400
O1676       O  0.99506561  0.21798227  0.10782672    -0.60500
H1677       H  0.90246668  0.19515053  0.15677829     0.16400
O1678       O  0.88090791  0.13662169  0.16566010    -0.60600
H1679       H  0.86644873  0.13393276  0.14653454     0.43400
H1680       H  0.01062222  0.22594081  0.12682780     0.43400
C1681       C  0.71495365  0.43061270  0.35589149    -0.05700
C1682       C  0.70683032  0.45321652  0.36227412    -0.33100
C1683       C  0.67610763  0.44648026  0.35912855     0.36100
C1684       C  0.65302368  0.41699589  0.34884217    -0.06100
C1685       C  0.66197163  0.39601356  0.33751294    -0.33000
C1686       C  0.69246186  0.40232584  0.34169731     0.36000
H1687       H  0.72367311  0.47525166  0.37309959     0.16400
O1688       O  0.66818617  0.46720848  0.37129736    -0.60500
H1689       H  0.64442607  0.37302026  0.32990443     0.16400
O1690       O  0.69957399  0.38011777  0.33353845    -0.60600
H1691       H  0.69126584  0.36530699  0.35318869     0.43400
H1692       H  0.66949843  0.47955244  0.35055945     0.43400
C1693       C  0.85032599  0.48214001  0.27995567    -0.05700
C1694       C  0.88040771  0.99956686  0.26615440    -0.33100
C1695       C  0.88511455  0.00978950  0.23107155     0.36100
C1696       C  0.85949073  0.00293347  0.20960966    -0.06100
C1697       C  0.82962461  0.48381777  0.22324382    -0.33000
C1698       C  0.82497652  0.47338317  0.25761639     0.36000
H1699       H  0.90020657  0.00645362  0.28293000     0.16400
O1700       O  0.91470880  0.02757286  0.21873574    -0.60500
H1701       H  0.80934682  0.47704710  0.20733213     0.16400
O1702       O  0.79521721  0.45533546  0.26954330    -0.60600
H1703       H  0.79126155  0.43402258  0.26836375     0.43400
H1704       H  0.92055792  0.01282821  0.20935329     0.43400
C1705       C  0.79376120  0.22119074  0.13289427    -0.05700
C1706       C  0.81513523  0.21380039  0.14641147    -0.33100
C1707       C  0.84659509  0.23602322  0.14850543     0.36100
C1708       C  0.85726430  0.26620830  0.13674215    -0.06100
C1709       C  0.83546085  0.27446314  0.12715149    -0.33000
C1710       C  0.80384969  0.25225377  0.12539649     0.36000
H1711       H  0.80786747  0.19032832  0.15308856     0.16400
O1712       O  0.86730458  0.22734330  0.15868347    -0.60500
H1713       H  0.84321384  0.29726419  0.11713635     0.16400
O1714       O  0.78376899  0.26043998  0.11179970    -0.60600
H1715       H  0.77536337  0.26594890  0.13238664     0.43400
H1716       H  0.86913545  0.21596920  0.13845026     0.43400
C1717       C  0.73127223  0.07529980  0.13517201    -0.05700
C1718       C  0.72406089  0.04609106  0.12352061    -0.33100
C1719       C  0.74696200  0.03781701  0.12190236     0.36100
C1720       C  0.77782772  0.05926671  0.13130470    -0.06100
C1721       C  0.78401987  0.08702113  0.14674924    -0.33000
C1722       C  0.76093360  0.09492287  0.14903986     0.36000
H1723       H  0.70167047  0.03098789  0.11197423     0.16400
O1724       O  0.73974717  0.01029785  0.10684064    -0.60500
H1725       H  0.80729714  0.10354527  0.15488496     0.16400
O1726       O  0.76846611  0.12340922  0.16134339    -0.60600
H1727       H  0.77930684  0.13757206  0.14159751     0.43400
H1728       H  0.73124674  0.99518895  0.12619783     0.43400
C1729       C  0.73934543  0.28598346  0.35797533    -0.05700
C1730       C  0.73478496  0.30619822  0.33722272    -0.33100
C1731       C  0.75776984  0.33727792  0.33471126     0.36100
C1732       C  0.78536413  0.34883168  0.35403156    -0.06100
C1733       C  0.79122125  0.32793355  0.37156981    -0.33000
C1734       C  0.76860561  0.29668133  0.37337454     0.36000
H1735       H  0.71265845  0.29834059  0.32475223     0.16400
O1736       O  0.75176744  0.35691424  0.31625347    -0.60500
H1737       H  0.81180268  0.33637652  0.38744948     0.16400
O1738       O  0.77378971  0.27778490  0.39437628    -0.60600
H1739       H  0.78209966  0.26805803  0.37848863     0.43400
H1740       H  0.74103334  0.36345744  0.33299513     0.43400
C1741       C  0.64759830  0.14522909  0.28091922    -0.05700
C1742       C  0.67510233  0.14630816  0.27055453    -0.33100
C1743       C  0.67915775  0.13909315  0.23646437     0.36100
C1744       C  0.65555273  0.13052783  0.21178166    -0.06100
C1745       C  0.62707201  0.12715887  0.22247137    -0.33000
C1746       C  0.62292848  0.13436345  0.25702822     0.36000
H1747       H  0.69412871  0.15386380  0.28872908     0.16400
O1748       O  0.70716730  0.14252221  0.22679475    -0.60500
H1749       H  0.60890805  0.12110963  0.20347366     0.16400
O1750       O  0.59594405  0.13343977  0.26611891    -0.60600
H1751       H  0.58139285  0.11175791  0.27245767     0.43400
H1752       H  0.70527761  0.12232037  0.23134746     0.43400
C1753       C  0.59043134  0.22933873  0.35263123    -0.05700
C1754       C  0.55948369  0.22004034  0.36007013    -0.33100
C1755       C  0.54979999  0.24178340  0.36246254     0.36100
C1756       C  0.57150968  0.27343657  0.35834591    -0.06100
C1757       C  0.60138839  0.28198965  0.34661662    -0.33000
C1758       C  0.61069640  0.26019257  0.34316241     0.36000
H1759       H  0.54365595  0.19656809  0.36783505     0.16400
O1760       O  0.52008644  0.23217549  0.37304330    -0.60500
H1761       H  0.61826860  0.30596355  0.34236549     0.16400
O1762       O  0.64103401  0.27000958  0.33521019    -0.60600
H1763       H  0.64130814  0.26644536  0.30970382     0.43400
H1764       H  0.50798823  0.22719690  0.35108287     0.43400
C1765       C  0.59938256  0.16288002  0.98944091    -0.05700
C1766       C  0.61303194  0.18299078  0.01790526    -0.33100
C1767       C  0.62150171  0.17363756  0.04851939     0.36100
C1768       C  0.61682506  0.14359448  0.05130302    -0.06100
C1769       C  0.60189900  0.12312150  0.02352173    -0.33000
C1770       C  0.59307386  0.13229784  0.99317696     0.36000
H1771       H  0.61773254  0.20637268  0.01630319     0.16400
O1772       O  0.63586157  0.19473722  0.07471846    -0.60500
H1773       H  0.59793348  0.09997145  0.02464591     0.16400
O1774       O  0.57935591  0.11123728  0.96678877    -0.60600
H1775       H  0.55697147  0.10006922  0.97256745     0.43400
H1776       H  0.61883750  0.19372531  0.08916186     0.43400
C1777       C  0.97242492  0.11026600  0.94074496    -0.05700
C1778       C  0.98124334  0.09918277  0.96948934    -0.33100
C1779       C  0.96238848  0.08814507  0.99959390     0.36100
C1780       C  0.93416371  0.08828179  0.00153665    -0.06100
C1781       C  0.92444467  0.09712645  0.97159140    -0.33000
C1782       C  0.94307162  0.10785640  0.94160424     0.36000
H1783       H  0.50373150  0.10097067  0.96964789     0.16400
O1784       O  0.97258884  0.07867108  0.02744366    -0.60500
H1785       H  0.90267114  0.09683859  0.97168839     0.16400
O1786       O  0.93303066  0.11771516  0.91393844    -0.60600
H1787       H  0.92594949  0.10114353  0.89619415     0.43400
H1788       H  0.96462493  0.05652932  0.02325557     0.43400
C1789       C  0.00678647  0.27450831  0.01336566    -0.05700
C1790       C  0.99155305  0.26398102  0.98142353    -0.33100
C1791       C  0.00042040  0.24869663  0.95810767     0.36100
C1792       C  0.52515916  0.24404563  0.96672727    -0.06100
C1793       C  0.54144733  0.25622423  0.99799368    -0.33000
C1794       C  0.53251866  0.27155057  0.02123351     0.36000
H1795       H  0.97180644  0.26642660  0.97520735     0.16400
O1796       O  0.98447910  0.23820410  0.92729817    -0.60500
H1797       H  0.56078132  0.25335434  0.00492578     0.16400
O1798       O  0.54735247  0.28110423  0.05279286    -0.60600
H1799       H  0.56442458  0.30239021  0.04870822     0.43400
H1800       H  0.96642884  0.21781056  0.93293942     0.43400
C1801       C  0.51638071  0.13948877  0.78040771    -0.05700
C1802       C  0.48478874  0.12341589  0.77190972    -0.33100
C1803       C  0.47523841  0.11873018  0.73690194     0.36100
C1804       C  0.99745037  0.13108024  0.70994808    -0.06100
C1805       C  0.02898697  0.14528845  0.71841857    -0.33000
C1806       C  0.03851329  0.14911878  0.75338589     0.36000
H1807       H  0.46750346  0.11575589  0.79250722     0.16400
O1808       O  0.44425960  0.10404338  0.72941787    -0.60500
H1809       H  0.04632848  0.15471758  0.69787616     0.16400
O1810       O  0.06950471  0.16430162  0.76087091    -0.60600
H1811       H  0.07574725  0.18630477  0.76212388     0.43400
H1812       H  0.43891389  0.12046042  0.72858511     0.43400
C1813       C  0.58375327  0.16504125  0.49121425    -0.05700
C1814       C  0.55536350  0.13706098  0.49188490    -0.33100
C1815       C  0.53579402  0.12809198  0.52142573     0.36100
C1816       C  0.54410313  0.14735051  0.55104577    -0.06100
C1817       C  0.57346742  0.17408726  0.55138203    -0.33000
C1818       C  0.59325001  0.18281845  0.52218764     0.36000
H1819       H  0.54765972  0.12245934  0.46892135     0.16400
O1820       O  0.50734393  0.10197676  0.51962365    -0.60500
H1821       H  0.58049039  0.18931293  0.57382750     0.16400
O1822       O  0.62093069  0.20985709  0.52366832    -0.60600
H1823       H  0.63590176  0.20423566  0.53278210     0.43400
H1824       H  0.51069804  0.08530470  0.52800026     0.43400
C1825       C  0.99304523  0.22964520  0.52519724    -0.05700
C1826       C  0.97263927  0.22831103  0.49934559    -0.33100
C1827       C  0.48129654  0.25273998  0.47670478     0.36100
C1828       C  0.51101208  0.27874966  0.47949911    -0.06100
C1829       C  0.53056535  0.28088271  0.50680089    -0.33000
C1830       C  0.52185490  0.25659110  0.52956639     0.36000
H1831       H  0.94994348  0.20816263  0.49638873     0.16400
O1832       O  0.96135832  0.24996263  0.45059106    -0.60500
H1833       H  0.55336775  0.30092227  0.50962423     0.16400
O1834       O  0.54239999  0.25889546  0.55467434    -0.60600
H1835       H  0.53992019  0.27055502  0.57416847     0.43400
H1836       H  0.94908721  0.25870214  0.46054830     0.43400
C1837       C  0.91361585  0.07442724  0.50115417    -0.05700
C1838       C  0.92188232  0.05172133  0.49640355    -0.33100
C1839       C  0.91168983  0.03185380  0.46736986     0.36100
C1840       C  0.89270254  0.03415645  0.44187608    -0.06100
C1841       C  0.88555081  0.05772634  0.44581589    -0.33000
C1842       C  0.89576822  0.07763095  0.47484442     0.36000
H1843       H  0.93587710  0.04875689  0.51574352     0.16400
O1844       O  0.91955253  0.00952680  0.46505580    -0.60500
H1845       H  0.87080831  0.06009012  0.42698834     0.16400
O1846       O  0.88698970  0.09926112  0.47775928    -0.60600
H1847       H  0.90309973  0.11742368  0.46496820     0.43400
H1848       H  0.93920684  0.01898342  0.45159161     0.43400
C1849       C  0.56983958  0.28472120  0.84535676    -0.05700
C1850       C  0.54817336  0.29231485  0.85825931    -0.33100
C1851       C  0.55450010  0.32278930  0.85783968     0.36100
C1852       C  0.58262479  0.34613286  0.84387774    -0.06100
C1853       C  0.60226901  0.33771534  0.82680229    -0.33000
C1854       C  0.59617138  0.30734117  0.82772054     0.36000
H1855       H  0.52775595  0.27518919  0.87199255     0.16400
O1856       O  0.53494133  0.33010166  0.87508335    -0.60500
H1857       H  0.62436950  0.35538892  0.81659796     0.16400
O1858       O  0.61744081  0.30068432  0.81401795    -0.60600
H1859       H  0.60982966  0.29261037  0.79019761     0.43400
H1860       H  0.54111165  0.33243963  0.90001307     0.43400
C1861       C  0.64803257  0.02631075  0.94036515    -0.05700
C1862       C  0.67464978  0.05568132  0.93846974    -0.33100
C1863       C  0.68429330  0.07609900  0.96699758     0.36100
C1864       C  0.66720278  0.06769634  0.99862233    -0.06100
C1865       C  0.63984218  0.03882760  0.99999724    -0.33000
C1866       C  0.63024485  0.01835542  0.97147358     0.36000
H1867       H  0.68894152  0.06258015  0.91510703     0.16400
O1868       O  0.71093959  0.10393970  0.96372962    -0.60500
H1869       H  0.62602298  0.03158348  0.02371110     0.16400
O1870       O  0.60452658  0.98986663  0.97533221    -0.60600
H1871       H  0.58674421  0.99276810  0.97041866     0.43400
H1872       H  0.72788516  0.09999729  0.96960844     0.43400
C1873       C  0.73059014  0.48384364  0.97019249    -0.05700
C1874       C  0.74281347  0.46519199  0.97964241    -0.33100
C1875       C  0.76902846  0.97664653  0.00038657     0.36100
C1876       C  0.78323734  0.00708755  0.01230501    -0.06100
C1877       C  0.77158340  0.52600064  0.00199206    -0.33000
C1878       C  0.74538476  0.51459161  0.98129258     0.39600
H1879       H  0.73236165  0.44171622  0.97047905     0.16400
O1880       O  0.78032461  0.95782075  0.00907211    -0.60500
H1881       H  0.78207447  0.04951873  0.01102682     0.16400
O1882       O  0.73449629  0.53370579  0.97225145    -0.60600
H1883       H  0.71959004  0.53115492  0.99097728     0.43400
H1884       H  0.79594736  0.96140717  0.99075976     0.43400
C1885       C  0.57737442  0.39959703  0.98656780    -0.05700
C1886       C  0.55326368  0.40618023  0.98985352    -0.33100
C1887       C  0.53455214  0.39812195  0.02008804     0.36100
C1888       C  0.53944515  0.38294166  0.04819836    -0.06100
C1889       C  0.56404558  0.37703606  0.04518540    -0.33000
C1890       C  0.58275628  0.38511580  0.01498741     0.36000
H1891       H  0.54868855  0.41756093  0.96873034     0.16400
O1892       O  0.51087636  0.40433429  0.02119252    -0.60500
H1893       H  0.56813850  0.36485997  0.06578738     0.16400
O1894       O  0.60509291  0.37705716  0.01284817    -0.60600
H1895       H  0.62308461  0.39338631  0.02562323     0.43400
H1896       H  0.51995419  0.42504461  0.03187957     0.43400
C1897       C  0.67098425  0.09219531  0.50092421    -0.05700
C1898       C  0.68808411  0.09904695  0.46952716    -0.33100
C1899       C  0.67875272  0.10792956  0.43920277     0.36100
C1900       C  0.65155599  0.10995965  0.43944847    -0.06100
C1901       C  0.63366221  0.10154534  0.47027976    -0.33000
C1902       C  0.64297014  0.09272274  0.50053111     0.36000
H1903       H  0.70926886  0.09821188  0.46854442     0.16400
O1904       O  0.69672118  0.11493087  0.40962005    -0.60500
H1905       H  0.61278862  0.10294377  0.47156715     0.16400
O1906       O  0.62469948  0.08550172  0.52986656    -0.60600
H1907       H  0.61006892  0.06311511  0.52817046     0.43400
H1908       H  0.71407509  0.13621791  0.41332966     0.43400
C1909       C  0.85638196  0.07894907  0.63899410    -0.05700
C1910       C  0.83539355  0.04970384  0.62590551    -0.33100
C1911       C  0.80365385  0.03984127  0.62390252     0.36100
C1912       C  0.79282869  0.05974730  0.63426644    -0.06100
C1913       C  0.81308834  0.08676119  0.65213701    -0.33000
C1914       C  0.84452992  0.09621951  0.65495465     0.36000
H1915       H  0.84391013  0.03603994  0.61347600     0.16400
O1916       O  0.78426966  0.01246982  0.60775230    -0.60500
H1917       H  0.80504317  0.10169110  0.66182852     0.16400
O1918       O  0.86421242  0.12404738  0.67013266    -0.60600
H1919       H  0.86550561  0.13969834  0.65349105     0.43400
H1920       H  0.77566410  0.99722233  0.62696086     0.43400
C1921       C  0.65815923  0.01282159  0.71047680    -0.05700
C1922       C  0.62804328  0.49297400  0.72314157    -0.33100
C1923       C  0.62320146  0.48165414  0.75777192     0.36100
C1924       C  0.64872627  0.49012260  0.78001107    -0.06100
C1925       C  0.67841137  0.51164196  0.76763934    -0.33000
C1926       C  0.68322830  0.02268410  0.73345840     0.36000
H1927       H  0.60850228  0.48493195  0.70566873     0.16400
O1928       O  0.59380741  0.46095610  0.76868389    -0.60500
H1929       H  0.69846570  0.51956745  0.78429008     0.16400
O1930       O  0.71282077  0.04294175  0.72246827    -0.60600
H1931       H  0.72254224  0.03029821  0.71796220     0.43400
H1932       H  0.58548572  0.47357043  0.77855524     0.43400
C1933       C  0.59517072  0.42817980  0.48717820    -0.05700
C1934       C  0.60134521  0.41852276  0.51905685    -0.33100
C1935       C  0.61067967  0.43743446  0.54886820     0.36100
C1936       C  0.61454656  0.46718534  0.54760798    -0.06100
C1937       C  0.60647090  0.47615635  0.51643074    -0.33000
C1938       C  0.59688211  0.45707309  0.48656637     0.36000
H1939       H  0.59962019  0.39630863  0.52087213     0.16400
O1940       O  0.61713687  0.42685487  0.57877309    -0.60500
H1941       H  0.60893619  0.49869061  0.51454202     0.16400
O1942       O  0.58948714  0.46714809  0.45690196    -0.60600
H1943       H  0.60951020  0.48070907  0.44507820     0.43400
H1944       H  0.59727531  0.41612722  0.59180066     0.43400
C1945       C  0.73579887  0.00653821  0.51460115    -0.05700
C1946       C  0.73487264  0.47915725  0.52327413    -0.33100
C1947       C  0.75127197  0.46889944  0.50345928     0.36100
C1948       C  0.76882290  0.48620155  0.47453763    -0.06100
C1949       C  0.76945641  0.51343425  0.46569294    -0.33000
C1950       C  0.75307708  0.02367018  0.48550348     0.36000
H1951       H  0.72244421  0.46628142  0.54631120     0.16400
O1952       O  0.75093363  0.44262091  0.51328653    -0.60500
H1953       H  0.78201467  0.52646804  0.44279678     0.16400
O1954       O  0.75354519  0.05005832  0.47585691    -0.60600
H1955       H  0.77395445  0.06707980  0.48351864     0.43400
H1956       H  0.73067844  0.42551891  0.50536814     0.43400
C1957       C  0.89819573  0.35164197  0.93963260    -0.05700
C1958       C  0.90303806  0.32656521  0.93761729    -0.33100
C1959       C  0.91343316  0.31741649  0.96658702     0.36100
C1960       C  0.91850587  0.33293214  0.99890735    -0.06100
C1961       C  0.91619592  0.35966536  0.99993164    -0.33000
C1962       C  0.90637493  0.36914711  0.97061673     0.36000
H1963       H  0.89681997  0.31274322  0.91402073     0.16400
O1964       O  0.91660618  0.29207568  0.96341187    -0.60500
H1965       H  0.92070142  0.37263077  0.02400857     0.16400
O1966       O  0.90154492  0.39347904  0.97388000    -0.60600
H1967       H  0.92146231  0.41173072  0.96699301     0.43400
H1968       H  0.93824042  0.30008822  0.95551643     0.43400
C1969       C  0.72982667  0.22014154  0.01690604    -0.05700
C1970       C  0.73913467  0.24989674  0.02852410    -0.33100
C1971       C  0.75561894  0.27481252  0.00633085     0.36100
C1972       C  0.76240302  0.26981407  0.97186499    -0.06100
C1973       C  0.75191180  0.23975163  0.96014826    -0.33000
C1974       C  0.73570380  0.21499900  0.98241338     0.36000
H1975       H  0.73522676  0.25399872  0.05545367     0.16400
O1976       O  0.76560793  0.30381472  0.01891052    -0.60500
H1977       H  0.75647735  0.23526392  0.93372196     0.16400
O1978       O  0.72561491  0.18581495  0.97034189    -0.60600
H1979       H  0.74414329  0.18351213  0.97014277     0.43400
H1980       H  0.78630274  0.31064858  0.02896977     0.43400
C1981       C  0.72095761  0.27014374  0.84695833    -0.05700
C1982       C  0.69952228  0.27602840  0.83083262    -0.33100
C1983       C  0.66811389  0.25351311  0.83036744     0.36100
C1984       C  0.65772093  0.22512056  0.84730175    -0.06100
C1985       C  0.67970155  0.21788083  0.85913859    -0.33000
C1986       C  0.71127323  0.24017666  0.85870808     0.36000
H1987       H  0.70663893  0.29889429  0.82149667     0.16400
O1988       O  0.64716499  0.26078571  0.81734821    -0.60500
H1989       H  0.67226064  0.19645069  0.87269556     0.16400
O1990       O  0.73189291  0.23375685  0.87435677    -0.60600
H1991       H  0.74082445  0.22753499  0.85496265     0.43400
H1992       H  0.64517319  0.27365915  0.83569238     0.43400
C1993       C  0.73191356  0.43209819  0.85233487    -0.05700
C1994       C  0.76219303  0.45319620  0.86346711    -0.33100
C1995       C  0.78551035  0.44544882  0.86276020     0.36100
C1996       C  0.77873582  0.41645206  0.85034152    -0.06100
C1997       C  0.75003856  0.39770120  0.83399938    -0.33000
C1998       C  0.72645801  0.40490427  0.83575509     0.36000
H1999       H  0.76697953  0.47436110  0.87620688     0.16400
O2000       O  0.81306310  0.46430055  0.87907370    -0.60500
H2001       H  0.74445776  0.37534829  0.82403780     0.16400
O2002       O  0.69766700  0.38435686  0.82313569    -0.60600
H2003       H  0.68819664  0.36785515  0.84093395     0.43400
H2004       H  0.82744379  0.47670630  0.86001673     0.43400
C2005       C  0.84194651  0.42325910  0.98997829    -0.05700
C2006       C  0.87263404  0.44769281  0.99376406    -0.33100
C2007       C  0.88192558  0.46696424  0.02338968     0.36100
C2008       C  0.86046216  0.46225725  0.05024041    -0.06100
C2009       C  0.83045776  0.43650208  0.04753217    -0.33000
C2010       C  0.82114769  0.41732893  0.01797892     0.36000
H2011       H  0.88947184  0.45252097  0.97320494     0.16400
O2012       O  0.91169017  0.49110583  0.02489457    -0.60500
H2013       H  0.81337764  0.43183491  0.06774346     0.16400
O2014       O  0.79147228  0.39294792  0.01684481    -0.60600
H2015       H  0.77882934  0.40140512  0.00772403     0.43400
H2016       H  0.92324184  0.48332344  0.03824677     0.43400
C2017       C  0.84176626  0.40702824  0.49225920    -0.05700
C2018       C  0.82240531  0.39672265  0.52193834    -0.33100
C2019       C  0.82997032  0.38528445  0.55134813     0.36100
C2020       C  0.85731576  0.38360283  0.55179315    -0.06100
C2021       C  0.87796162  0.39623503  0.52349933    -0.33000
C2022       C  0.87053711  0.40796079  0.49408977     0.36000
H2023       H  0.80061998  0.39641168  0.52198862     0.16400
O2024       O  0.80952609  0.37426218  0.57888467    -0.60500
H2025       H  0.89903746  0.39516864  0.52304566     0.16400
O2026       O  0.89103714  0.41881974  0.46662077    -0.60600
H2027       H  0.90535554  0.44080594  0.47207789     0.43400
H2028       H  0.81761017  0.39120673  0.59617095     0.43400
C2029       C  0.73035154  0.22112495  0.47562750    -0.05700
C2030       C  0.72747186  0.23627036  0.50486563    -0.33100
C2031       C  0.75158218  0.25099142  0.52821814     0.36100
C2032       C  0.77898330  0.24999878  0.52295557    -0.06100
C2033       C  0.78118261  0.23332565  0.49467061    -0.33000
C2034       C  0.75707122  0.21898076  0.47089950     0.36000
H2035       H  0.70687331  0.23787148  0.50887268     0.16400
O2036       O  0.74814457  0.26669069  0.55565683    -0.60500
H2037       H  0.80177358  0.23175806  0.49058325     0.16400
O2038       O  0.76042565  0.20413900  0.44249654    -0.60600
H2039       H  0.77121309  0.22025079  0.42451719     0.43400
H2040       H  0.75586514  0.28778644  0.54675208     0.43400
C2041       C  0.73429841  0.14607512  0.64467771    -0.05700
C2042       C  0.72769770  0.16922295  0.63652172    -0.33100
C2043       C  0.75106829  0.20025459  0.63771587     0.36100
C2044       C  0.78159627  0.20835730  0.64661973    -0.06100
C2045       C  0.78724597  0.18554410  0.65873929    -0.33000
C2046       C  0.76374441  0.15463190  0.65823763     0.36000
H2047       H  0.70556110  0.16318853  0.62517648     0.16400
O2048       O  0.74489277  0.22196613  0.62503961    -0.60500
H2049       H  0.81055283  0.19134362  0.66555901     0.16400
O2050       O  0.77078985  0.13254584  0.66694263    -0.60600
H2051       H  0.78291250  0.13165317  0.64681658     0.43400
H2052       H  0.74228700  0.23203057  0.64608978     0.43400
C2053       C  0.86337779  0.36146320  0.78122614    -0.05700
C2054       C  0.88097561  0.34786558  0.77199960    -0.33100
C2055       C  0.88612213  0.34385283  0.73677960     0.36100
C2056       C  0.87275741  0.35264897  0.71034430    -0.06100
C2057       C  0.85637591  0.36749491  0.71958520    -0.33000
C2058       C  0.85199500  0.37230515  0.75473496     0.36000
H2059       H  0.88968663  0.33922782  0.79218122     0.16400
O2060       O  0.90149106  0.32854940  0.72860032    -0.60500
H2061       H  0.84573381  0.37412812  0.69946681     0.16400
O2062       O  0.83386650  0.38470812  0.76288665    -0.60600
H2063       H  0.84840113  0.40712637  0.76452674     0.43400
H2064       H  0.92355561  0.34476058  0.72645071     0.43400
C2065       C  0.93179295  0.27259594  0.64289890    -0.05700
C2066       C  0.91477148  0.24590864  0.66318204    -0.33100
C2067       C  0.92327099  0.22339131  0.66453232     0.36100
C2068       C  0.94942291  0.22762936  0.64601809    -0.06100
C2069       C  0.96892174  0.25618193  0.63016179    -0.33000
C2070       C  0.96020241  0.27861282  0.62837705     0.36000
H2071       H  0.89268237  0.24073231  0.67428200     0.16400
O2072       O  0.90391028  0.19593411  0.68046827    -0.60500
H2073       H  0.98908812  0.25970317  0.61556267     0.16400
O2074       O  0.97740892  0.30432266  0.60838966    -0.60600
H2075       H  0.97056225  0.29795164  0.58409494     0.43400
H2076       H  0.91342869  0.19709510  0.70340361     0.43400
C2077       C  0.97097559  0.35022424  0.43940623    -0.05700
C2078       C  0.94535189  0.32020405  0.44182034    -0.33100
C2079       C  0.92649567  0.31011235  0.47189562     0.36100
C2080       C  0.93295798  0.33001646  0.50074560    -0.06100
C2081       C  0.95764594  0.36043811  0.49759100    -0.33000
C2082       C  0.97642386  0.37054552  0.46754981     0.36000
H2083       H  0.94048290  0.30391143  0.42082136     0.16400
O2084       O  0.90233361  0.28046355  0.47298062    -0.60500
H2085       H  0.96309289  0.37651434  0.51896896     0.16400
O2086       O  0.00099315  0.39999061  0.46693253    -0.60600
H2087       H  0.99288969  0.41235494  0.45617359     0.43400
H2088       H  0.88438489  0.28132128  0.46349130     0.43400
Fe2089     Fe  0.82559605  0.80186551  0.61645542     1.65800
Fe2090     Fe  0.90419112  0.84018641  0.60680267     1.73200
Fe2091     Fe  0.86014549  0.76727150  0.57633067     1.54400
O2092       O  0.82341654  0.73669662  0.60826144    -0.81900
O2093       O  0.91908453  0.84031986  0.55652178    -0.80200
O2094       O  0.81132231  0.76290300  0.64607203    -0.84400
O2095       O  0.79983622  0.77473516  0.57605324    -0.79300
O2096       O  0.88994919  0.76559671  0.61064145    -0.81000
O2097       O  0.88757727  0.86819770  0.58638124    -0.83800
C2098       C  0.80455612  0.76488144  0.54762253     0.97000
C2099       C  0.80762969  0.73778585  0.63399232     1.04400
O2100       O  0.86359515  0.80315889  0.60029818    -1.12800
O2101       O  0.89527723  0.84586894  0.65853648    -0.75200
O2102       O  0.84481562  0.82857572  0.65992626    -0.78700
O2103       O  0.82996242  0.76644318  0.54051176    -0.79400
C2104       C  0.87115282  0.84206581  0.67403063     0.95900
O2105       O  0.83594969  0.83928256  0.58651273    -0.77300
O2106       O  0.92388159  0.81424417  0.62550193    -0.82500
C2107       C  0.91455009  0.81998135  0.53411470     0.98500
C2108       C  0.91426415  0.78538691  0.62603364     1.04400
O2109       O  0.89513569  0.79183623  0.53953957    -0.78200
C2110       C  0.86077039  0.86306097  0.57713166     1.02700
Fe2111     Fe  0.81511223  0.81560088  0.87719880     1.65800
Fe2112     Fe  0.85115244  0.89378671  0.88382293     1.73200
Fe2113     Fe  0.77916828  0.84855259  0.91700382     1.54400
O2114       O  0.74878820  0.81095921  0.88615967    -0.81900
O2115       O  0.85252393  0.90949385  0.93405193    -0.80200
O2116       O  0.77579218  0.80026360  0.84762212    -0.84400
O2117       O  0.78790276  0.78969653  0.91834256    -0.79300
O2118       O  0.77498796  0.87621214  0.88230548    -0.81000
O2119       O  0.88117385  0.87917489  0.90316239    -0.83800
C2120       C  0.77849571  0.79500535  0.94692838     0.97000
C2121       C  0.75029985  0.79589060  0.86002581     1.04400
O2122       O  0.81521034  0.85296163  0.89219229    -1.12800
O2123       O  0.85526611  0.88377085  0.83211450    -0.75200
O2124       O  0.84209249  0.83469203  0.83337498    -0.78700
O2125       O  0.78094710  0.82058972  0.95358466    -0.79400
C2126       C  0.85335834  0.86017513  0.81783500     0.95900
O2127       O  0.85302682  0.82788218  0.90698104    -0.77300
O2128       O  0.82303747  0.91154418  0.86607859    -0.82500
C2129       C  0.83216379  0.90459184  0.95690131     0.98500
C2130       C  0.79367432  0.90061842  0.86643703     1.04400
O2131       O  0.80392738  0.88450490  0.95218153    -0.78200
C2132       C  0.87679302  0.85334083  0.91435535     1.02700
Fe2133     Fe  0.69280074  0.50902734  0.60871495     1.65800
Fe2134     Fe  0.66162018  0.55462127  0.60703769     1.73200
Fe2135     Fe  0.73240641  0.57920723  0.57269296     1.54400
O2136       O  0.76133260  0.57823435  0.61086624    -0.81900
O2137       O  0.66740281  0.58023294  0.56200586    -0.80200
O2138       O  0.73967844  0.52797130  0.61960810    -0.84400
O2139       O  0.70037772  0.50123865  0.55829441    -0.79300
O2140       O  0.73192802  0.61415886  0.59977904    -0.81000
O2141       O  0.63342985  0.51643040  0.57575131    -0.83800
C2142       C  0.72328079  0.51932807  0.53956021     0.97000
C2143       C  0.76267500  0.55506789  0.62160060     1.04400
O2144       O  0.69604679  0.54803004  0.59671279    -1.12800
O2145       O  0.65013199  0.52926986  0.65438409    -0.75200
O2146       O  0.68543661  0.51505063  0.65973186    -0.78700
O2147       O  0.73792204  0.54813614  0.54375076    -0.79400
C2148       C  0.66468891  0.51950638  0.67268178     0.95900
O2149       O  0.64574658  0.98427245  0.59904801    -0.77300
O2150       O  0.69077465  0.59474725  0.63557165    -0.82500
C2151       C  0.68217717  0.58421176  0.53345715     0.98500
C2152       C  0.71746947  0.61640190  0.62598218     1.04400
O2153       O  0.70616368  0.58163686  0.53207937    -0.78200
C2154       C  0.63148907  0.99030512  0.57601474     1.02700
Fe2155     Fe  0.68417900  0.98350241  0.87850391     1.65800
Fe2156     Fe  0.60642800  0.93888376  0.88046855     1.73200
Fe2157     Fe  0.65140745  0.91276723  0.91288860     1.54400
O2158       O  0.68068201  0.91336694  0.87377683    -0.81900
O2159       O  0.58596329  0.91329745  0.92588879    -0.80200
O2160       O  0.71080732  0.96370251  0.86614351    -0.84400
O2161       O  0.69956995  0.98990909  0.92865935    -0.79300
O2162       O  0.61486150  0.87857730  0.88645475    -0.81000
O2163       O  0.61762645  0.97710660  0.91192167    -0.83800
C2164       C  0.70454944  0.97155191  0.94593549     0.97000
C2165       C  0.70597839  0.93651468  0.86374469     1.04400
O2166       O  0.64729249  0.94466627  0.88999587    -1.12800
O2167       O  0.62125704  0.96493552  0.83343961    -0.75200
O2168       O  0.67100815  0.97935199  0.82766912    -0.78700
O2169       O  0.68927817  0.94280159  0.94133037    -0.79400
C2170       C  0.64639978  0.97700006  0.81559941     0.95900
O2171       O  0.66368408  0.50933102  0.89017499    -0.77300
O2172       O  0.59377073  0.89855277  0.85159066    -0.82500
C2173       C  0.59657889  0.90818015  0.95369153     0.98500
C2174       C  0.59769049  0.87645794  0.86112566     1.04400
O2175       O  0.62305199  0.91042656  0.95417089    -0.78200
C2176       C  0.64237719  0.50311456  0.91235662     1.02700
Fe2177     Fe  0.99622905  0.68073127  0.61739752     1.65800
Fe2178     Fe  0.95294282  0.60285546  0.60672661     1.73200
Fe2179     Fe  0.92797510  0.64931978  0.57561138     1.54400
O2180       O  0.93555872  0.68639989  0.60743987    -0.81900
O2181       O  0.93843614  0.58841933  0.55641533    -0.80200
O2182       O  0.97172050  0.69556568  0.64721531    -0.84400
O2183       O  0.99666155  0.70795350  0.57767239    -0.79300
O2184       O  0.89451018  0.62055860  0.60908938    -0.81000
O2185       O  0.99796894  0.61806005  0.58646671    -0.83800
C2186       C  0.98291029  0.70365859  0.54880222     0.97000
C2187       C  0.95173910  0.70099686  0.63398319     1.04400
O2188       O  0.95870255  0.64394769  0.60056009    -1.12800
O2189       O  0.96704082  0.61065486  0.65857139    -0.75200
O2190       O  0.00245254  0.66014005  0.66030454    -0.78700
O2191       O  0.95970948  0.67826028  0.54060178    -0.79400
C2192       C  0.98847744  0.63381646  0.67404392     0.95900
O2193       O  0.52262936  0.66945842  0.58703610    -0.77300
O2194       O  0.90656567  0.58503601  0.62462562    -0.82500
C2195       C  0.92328333  0.59360742  0.53390479     0.98500
C2196       C  0.88809016  0.59575269  0.62422829     1.04400
O2197       O  0.91613085  0.61417579  0.53889189    -0.78200
C2198       C  0.52038597  0.64440215  0.57708734     1.02700
Fe2199     Fe  0.52079258  0.69104372  0.87421195     1.65800
Fe2200     Fe  0.56227148  0.65442681  0.88273046     1.73200
Fe2201     Fe  0.58934644  0.72625977  0.91581485     1.54400
O2202       O  0.58394204  0.75689399  0.88331468    -0.81900
O2203       O  0.57849572  0.65456456  0.93200535    -0.80200
O2204       O  0.54602285  0.73035595  0.84492848    -0.84400
O2205       O  0.52103928  0.71798128  0.91430568    -0.79300
O2206       O  0.62255856  0.72899465  0.88294051    -0.81000
O2207       O  0.51799830  0.62589130  0.90501691    -0.83800
C2208       C  0.53523309  0.72808379  0.94278988     0.97000
C2209       C  0.56728543  0.75562860  0.85737537     1.04400
O2210       O  0.55782473  0.69060586  0.89031161    -1.12800
O2211       O  0.54632176  0.64739668  0.83162689    -0.75200
O2212       O  0.51333897  0.66445257  0.83060674    -0.78700
O2213       O  0.55847575  0.72593365  0.95061730    -0.79400
C2214       C  0.52576839  0.65067481  0.81649320     0.95900
O2215       O  0.99408578  0.65337097  0.90427633    -0.77300
O2216       O  0.60761908  0.68182253  0.86236813    -0.82500
C2217       C  0.59170992  0.67371197  0.95636613     0.98500
C2218       C  0.62714209  0.71064622  0.86462760     1.04400
O2219       O  0.59831127  0.70143605  0.95323985    -0.78200
C2220       C  0.99595167  0.63043386  0.91439268     1.02700
Fe2221     Fe  0.68687641  0.68553034  0.37754038     1.65800
Fe2222     Fe  0.65818114  0.72515340  0.41785552     1.73200
Fe2223     Fe  0.60948098  0.65583135  0.38319903     1.54400
O2224       O  0.62231165  0.64458242  0.33493994    -0.81900
O2225       O  0.62951517  0.69878737  0.45852229    -0.80200
O2226       O  0.67213141  0.67929557  0.32721321    -0.84400
O2227       O  0.66362523  0.63864398  0.38609549    -0.79300
O2228       O  0.59797783  0.68553125  0.35738358    -0.81000
O2229       O  0.69446489  0.72815704  0.44514538    -0.83800
C2230       C  0.64423340  0.62531763  0.41057095     0.97000
C2231       C  0.64683613  0.65721926  0.31612054     1.04400
O2232       O  0.65150975  0.68936124  0.39213908    -1.12800
O2233       O  0.68829029  0.75470003  0.37998964    -0.75200
O2234       O  0.71587143  0.73231850  0.36802901    -0.78700
O2235       O  0.61992930  0.62732372  0.41221931    -0.79400
C2236       C  0.71268487  0.75577114  0.36837258     0.95900
O2237       O  0.70318350  0.69116014  0.42712037    -0.77300
O2238       O  0.62285102  0.72629053  0.39280200    -0.82500
C2239       C  0.60245877  0.67547874  0.45807278     0.98500
C2240       C  0.60424145  0.71218988  0.36798939     1.04400
O2241       O  0.59061853  0.66088139  0.42984889    -0.78200
C2242       C  0.70766309  0.71246805  0.44798946     1.02700
Fe2243     Fe  0.69284157  0.67415336  0.11410332     1.65800
Fe2244     Fe  0.72908967  0.64338054  0.06907181     1.73200
Fe2245     Fe  0.65915363  0.59711561  0.10547603     1.54400
O2246       O  0.64824538  0.60918242  0.15421332    -0.81900
O2247       O  0.70136095  0.61465672  0.02908932    -0.80200
O2248       O  0.68558790  0.65727968  0.16363556    -0.84400
O2249       O  0.64581815  0.65365981  0.10439434    -0.79300
O2250       O  0.68819106  0.58419672  0.13042453    -0.81000
O2251       O  0.73234370  0.67964277  0.04179254    -0.83800
C2252       C  0.63160065  0.63495015  0.07968481     0.97000
C2253       C  0.66342290  0.63207572  0.17441494     1.04400
O2254       O  0.69424808  0.63833018  0.09658996    -1.12800
O2255       O  0.76101469  0.67326792  0.10536091    -0.75200
O2256       O  0.73974118  0.70005113  0.12496173    -0.78700
O2257       O  0.63182712  0.60987084  0.07748449    -0.79400
C2258       C  0.76288646  0.69640707  0.12114749     0.95900
O2259       O  0.70076696  0.69389301  0.06606881    -0.77300
O2260       O  0.72937743  0.60790010  0.09455998    -0.82500
C2261       C  0.67777778  0.58791638  0.03057446     0.98500
C2262       C  0.71478401  0.58965172  0.11955747     1.04400
O2263       O  0.66288012  0.57751748  0.05899128    -0.78200
C2264       C  0.71968847  0.69596676  0.04265690     1.02700
Fe2265     Fe  0.81429317  0.98570782  0.38130834     1.65800
Fe2266     Fe  0.77849514  0.91577782  0.41883309     1.73200
Fe2267     Fe  0.85090453  0.94492711  0.38554652     1.54400
O2268       O  0.85982316  0.96767638  0.33662090    -0.81900
O2269       O  0.80559398  0.91523631  0.45981526    -0.80200
O2270       O  0.82326357  0.98019901  0.33078420    -0.84400
O2271       O  0.86069120  0.51427937  0.39154038    -0.79300
O2272       O  0.82479939  0.90249156  0.35962258    -0.81000
O2273       O  0.77028609  0.94545128  0.44723449    -0.83800
C2274       C  0.87654678  0.51011535  0.41416908     0.97000
C2275       C  0.84439760  0.97624769  0.31802179     1.04400
O2276       O  0.81416670  0.94828919  0.39462872    -1.12800
O2277       O  0.74795353  0.91385525  0.38053714    -0.75200
O2278       O  0.76764890  0.96350049  0.36956588    -0.78700
O2279       O  0.87698466  0.98514121  0.41464447    -0.79400
C2280       C  0.74541335  0.93601514  0.36857238     0.95900
O2281       O  0.80495121  0.99304253  0.43112596    -0.77300
O2282       O  0.78182874  0.88216152  0.39259312    -0.82500
C2283       C  0.83121247  0.91556926  0.45964792     0.98500
C2284       C  0.79861274  0.87992588  0.36913976     1.04400
O2285       O  0.84784851  0.92235846  0.43218764    -0.78200
C2286       C  0.78279607  0.97426957  0.45029670     1.02700
Fe2287     Fe  0.82534367  0.50711954  0.10860323     1.65800
Fe2288     Fe  0.85963866  0.57742178  0.07274129     1.73200
Fe2289     Fe  0.90350328  0.55095360  0.10814415     1.54400
O2290       O  0.88763648  0.52659708  0.15604312    -0.81900
O2291       O  0.88894048  0.57897333  0.03317783    -0.80200
O2292       O  0.83760265  0.51171063  0.15986746    -0.84400
O2293       O  0.84520146  0.98050390  0.09945522    -0.79300
O2294       O  0.91742875  0.59287327  0.13472397    -0.81000
O2295       O  0.82310406  0.54747610  0.04306096    -0.83800
C2296       C  0.86667105  0.98583525  0.07796767     0.97000
C2297       C  0.86213974  0.51477225  0.17318336     1.04400
O2298       O  0.86290092  0.54563899  0.09725187    -1.12800
O2299       O  0.82910960  0.57758581  0.10986908    -0.75200
O2300       O  0.79908436  0.52750776  0.11913549    -0.78700
O2301       O  0.89185397  0.51150031  0.07848463    -0.79400
C2302       C  0.80377531  0.55466060  0.12026319     0.95900
O2303       O  0.81075011  0.50010693  0.05777606    -0.77300
O2304       O  0.89532448  0.61168013  0.09969953    -0.82500
C2305       C  0.91483748  0.58000359  0.03418276     0.98500
C2306       C  0.91334694  0.61473146  0.12442103     1.04400
O2307       O  0.92479284  0.57467231  0.06226911    -0.78200
C2308       C  0.80763749  0.51876481  0.03862538     1.02700
Fe2309     Fe  0.99777548  0.80902637  0.11179657     1.65800
Fe2310     Fe  0.92957914  0.77052740  0.07024640     1.73200
Fe2311     Fe  0.95131255  0.83955964  0.10626892     1.54400
O2312       O  0.97470768  0.85035264  0.15447587    -0.81900
O2313       O  0.92844224  0.79789364  0.03057984    -0.80200
O2314       O  0.98831257  0.81498401  0.16204721    -0.84400
O2315       O  0.52243823  0.85585936  0.10268386    -0.79300
O2316       O  0.90939399  0.80974129  0.13197399    -0.81000
O2317       O  0.96299456  0.76807121  0.04205375    -0.83800
C2318       C  0.51677446  0.86897435  0.07793404     0.97000
C2319       C  0.98364015  0.83579858  0.17378950     1.04400
O2320       O  0.95900170  0.80575327  0.09680022    -1.12800
O2321       O  0.92908838  0.73991306  0.10690911    -0.75200
O2322       O  0.97871318  0.76223484  0.12177480    -0.78700
O2323       O  0.99090512  0.86796182  0.07706660    -0.79400
C2324       C  0.95170674  0.73880909  0.12039798     0.95900
O2325       O  0.00911457  0.80321954  0.06251847    -0.77300
O2326       O  0.89296933  0.76907943  0.09623740    -0.82500
C2327       C  0.92541652  0.82138281  0.03167046     0.98500
C2328       C  0.88860762  0.78313862  0.12127096     1.04400
O2329       O  0.92771579  0.83524819  0.06025469    -0.78200
C2330       C  0.99225121  0.78303913  0.04049102     1.02700
Fe2331     Fe  0.51575624  0.81784014  0.37938358     1.65800
Fe2332     Fe  0.58472265  0.85247045  0.41948024     1.73200
Fe2333     Fe  0.55901819  0.89510186  0.38090798     1.54400
O2334       O  0.53368114  0.87898892  0.33391429    -0.81900
O2335       O  0.58477017  0.88171295  0.45807171    -0.80200
O2336       O  0.52330987  0.83091820  0.32856161    -0.84400
O2337       O  0.98905814  0.83804825  0.38722718    -0.79300
O2338       O  0.60040784  0.90709604  0.35395677    -0.81000
O2339       O  0.55318207  0.81656667  0.44876286    -0.83800
C2340       C  0.99408763  0.85803994  0.41048120     0.97000
C2341       C  0.52340975  0.85417669  0.31635017     1.04400
O2342       O  0.55363039  0.85507551  0.39268978    -1.12800
O2343       O  0.58668651  0.82227526  0.38364158    -0.75200
O2344       O  0.53705656  0.79208862  0.37026093    -0.78700
O2345       O  0.51958126  0.88338379  0.41068209    -0.79400
C2346       C  0.56473739  0.79750098  0.37088044     0.95900
O2347       O  0.50612054  0.80282967  0.42954705    -0.77300
O2348       O  0.61972687  0.88785750  0.39257876    -0.82500
C2349       C  0.58732012  0.90798329  0.45530342     0.98500
C2350       C  0.62235288  0.90351969  0.36557927     1.04400
O2351       O  0.58376856  0.91755304  0.42594945    -0.78200
C2352       C  0.52400930  0.80112171  0.45137398     1.02700
C2353       C  0.51001934  0.85110004  0.28107903    -0.05700
C2354       C  0.52015906  0.87650283  0.25875928    -0.33100
C2355       C  0.50981656  0.87242564  0.22392653     0.36100
C2356       C  0.98922596  0.84271456  0.21133983    -0.06100
C2357       C  0.97733396  0.81790300  0.23439489    -0.33000
C2358       C  0.48735008  0.82181868  0.26890627     0.36000
H2359       H  0.53719326  0.89920613  0.26773634     0.16400
O2360       O  0.52196472  0.89709178  0.20174228    -0.60500
H2361       H  0.96103629  0.79499974  0.22515678     0.16400
O2362       O  0.47477290  0.79672589  0.29056576    -0.60600
H2363       H  0.98504644  0.78496872  0.28390734     0.43400
H2364       H  0.50767444  0.90526639  0.20338950     0.43400
C2365       C  0.92900957  0.64588204  0.13994647    -0.05700
C2366       C  0.95857707  0.66733904  0.12744746    -0.33100
C2367       C  0.96755994  0.69854251  0.12407132     0.36100
C2368       C  0.94664058  0.70863145  0.13285455    -0.06100
C2369       C  0.91864628  0.68786209  0.14915168    -0.33000
C2370       C  0.90989993  0.65686631  0.15295664     0.36000
H2371       H  0.97326440  0.65939994  0.11630469     0.16400
O2372       O  0.99508945  0.71799653  0.10782252    -0.60500
H2373       H  0.90249204  0.69516567  0.15677776     0.16400
O2374       O  0.88092786  0.63663517  0.16564751    -0.60600
H2375       H  0.86646977  0.63394675  0.14652062     0.43400
H2376       H  0.01064526  0.72594920  0.12682446     0.43400
C2377       C  0.71495492  0.93060401  0.35592425    -0.05700
C2378       C  0.70682753  0.95320213  0.36232556    -0.33100
C2379       C  0.67610392  0.94646266  0.35918690     0.36100
C2380       C  0.65302429  0.91698391  0.34887562    -0.06100
C2381       C  0.66197642  0.89600847  0.33753233    -0.33000
C2382       C  0.69246554  0.90231982  0.34172221     0.36000
H2383       H  0.72366733  0.97523217  0.37316510     0.16400
O2384       O  0.66817730  0.96717698  0.37139244    -0.60500
H2385       H  0.64443326  0.87301775  0.32991210     0.16400
O2386       O  0.69957738  0.88011133  0.33356510    -0.60600
H2387       H  0.69127112  0.86530269  0.35321801     0.43400
H2388       H  0.66934501  0.97944279  0.35063867     0.43400
C2389       C  0.85031990  0.98212946  0.27996764    -0.05700
C2390       C  0.88041580  0.49960355  0.26615707    -0.33100
C2391       C  0.88512638  0.50982428  0.23107402     0.36100
C2392       C  0.85950350  0.50294095  0.20959815    -0.06100
C2393       C  0.82961216  0.98383895  0.22327091    -0.33000
C2394       C  0.82496703  0.97340325  0.25764238     0.36000
H2395       H  0.90021184  0.50651179  0.28294420     0.16400
O2396       O  0.91472140  0.52763351  0.21875186    -0.60500
H2397       H  0.80933174  0.97709114  0.20737267     0.16400
O2398       O  0.79520733  0.95538623  0.26958288    -0.60600
H2399       H  0.79122412  0.93406365  0.26840661     0.43400
H2400       H  0.92060847  0.51290439  0.20941172     0.43400
C2401       C  0.79377108  0.72119741  0.13292088    -0.05700
C2402       C  0.81514525  0.71380712  0.14643833    -0.33100
C2403       C  0.84660590  0.73603010  0.14853058     0.36100
C2404       C  0.85727583  0.76621368  0.13676130    -0.06100
C2405       C  0.83547208  0.77446931  0.12717438    -0.33000
C2406       C  0.80385991  0.75226116  0.12542633     0.36000
H2407       H  0.80787661  0.69033551  0.15311874     0.16400
O2408       O  0.86731495  0.72735230  0.15871689    -0.60500
H2409       H  0.84322469  0.79727020  0.11715903     0.16400
O2410       O  0.78377721  0.76044961  0.11184087    -0.60600
H2411       H  0.77537522  0.76595577  0.13243322     0.43400
H2412       H  0.86914826  0.71597609  0.13848739     0.43400
C2413       C  0.73128410  0.57531134  0.13516220    -0.05700
C2414       C  0.72406863  0.54609735  0.12352539    -0.33100
C2415       C  0.74696993  0.53782272  0.12190542     0.36100
C2416       C  0.77783901  0.55927652  0.13129209    -0.06100
C2417       C  0.78403643  0.58703807  0.14672024    -0.33000
C2418       C  0.76095191  0.59494169  0.14901037     0.36000
H2419       H  0.70167380  0.53098891  0.11199175     0.16400
O2420       O  0.73975070  0.51029730  0.10685760    -0.60500
H2421       H  0.80731691  0.60356688  0.15484119     0.16400
O2422       O  0.76849230  0.62343746  0.16128849    -0.60600
H2423       H  0.77934928  0.63758982  0.14153930     0.43400
H2424       H  0.73122595  0.49519055  0.12621550     0.43400
C2425       C  0.73931292  0.78597862  0.35800581    -0.05700
C2426       C  0.73476759  0.80620000  0.33724709    -0.33100
C2427       C  0.75775997  0.83727794  0.33474322     0.36100
C2428       C  0.78535049  0.84882240  0.35407010    -0.06100
C2429       C  0.79118975  0.82791789  0.37162119    -0.33000
C2430       C  0.76856339  0.79666972  0.37342785     0.36000
H2431       H  0.71264683  0.79834898  0.32476535     0.16400
O2432       O  0.75176750  0.85692186  0.31628687    -0.60500
H2433       H  0.81176425  0.83635474  0.38751186     0.16400
O2434       O  0.77372546  0.77777233  0.39445474    -0.60600
H2435       H  0.78205370  0.76804764  0.37859076     0.43400
H2436       H  0.74105505  0.86348500  0.33303596     0.43400
C2437       C  0.64758329  0.64521541  0.28093082    -0.05700
C2438       C  0.67508815  0.64629357  0.27057212    -0.33100
C2439       C  0.67914976  0.63908386  0.23648134     0.36100
C2440       C  0.65555023  0.63052557  0.21179276    -0.06100
C2441       C  0.62706877  0.62715796  0.22247663    -0.33000
C2442       C  0.62291905  0.63435695  0.25703341     0.36000
H2443       H  0.69411034  0.65384481  0.28875188     0.16400
O2444       O  0.70715956  0.64251073  0.22681731    -0.60500
H2445       H  0.60890926  0.62111447  0.20347446     0.16400
O2446       O  0.59593481  0.63343605  0.26611798    -0.60600
H2447       H  0.58138513  0.61175691  0.27246939     0.43400
H2448       H  0.70528448  0.62232257  0.23142369     0.43400
C2449       C  0.59038236  0.72929449  0.35262324    -0.05700
C2450       C  0.55943777  0.72000085  0.36007219    -0.33100
C2451       C  0.54976034  0.74174814  0.36247053     0.36100
C2452       C  0.57147545  0.77340053  0.35835736    -0.06100
C2453       C  0.60134803  0.78194745  0.34660915    -0.33000
C2454       C  0.61064803  0.76014606  0.34314140     0.36000
H2455       H  0.54360897  0.69652973  0.36784017     0.16400
O2456       O  0.52004785  0.73214455  0.37305188    -0.60500
H2457       H  0.61822987  0.80592025  0.34235436     0.16400
O2458       O  0.64098310  0.76996269  0.33517214    -0.60600
H2459       H  0.64114326  0.76576338  0.30981796     0.43400
H2460       H  0.50795052  0.72717217  0.35109121     0.43400
C2461       C  0.59939625  0.66289742  0.98943685    -0.05700
C2462       C  0.61305549  0.68301380  0.01789462    -0.33100
C2463       C  0.62152312  0.67366283  0.04851251     0.36100
C2464       C  0.61683618  0.64361639  0.05130673    -0.06100
C2465       C  0.60189965  0.62313793  0.02353256    -0.33000
C2466       C  0.59307463  0.63231174  0.99318483     0.36000
H2467       H  0.61776542  0.70639846  0.01628454     0.16400
O2468       O  0.63589054  0.69476746  0.07470507    -0.60500
H2469       H  0.59792432  0.59998462  0.02466531     0.16400
O2470       O  0.57934078  0.61124375  0.96680688    -0.60600
H2471       H  0.55695846  0.60008480  0.97259618     0.43400
H2472       H  0.61887065  0.69376600  0.08914690     0.43400
C2473       C  0.97243940  0.61028557  0.94074198    -0.05700
C2474       C  0.98125642  0.59919836  0.96948360    -0.33100
C2475       C  0.96239946  0.58815539  0.99958525     0.36100
C2476       C  0.93417533  0.58829291  0.00152839    -0.06100
C2477       C  0.92445798  0.59714247  0.97158583    -0.33000
C2478       C  0.94308645  0.60787632  0.94160075     0.36000
H2479       H  0.50374361  0.60098419  0.96964349     0.16400
O2480       O  0.97259627  0.57867375  0.02743132    -0.60500
H2481       H  0.90268451  0.59685474  0.97168325     0.16400
O2482       O  0.93304645  0.61773690  0.91393580    -0.60600
H2483       H  0.92594743  0.60115779  0.89619998     0.43400
H2484       H  0.96462186  0.55653032  0.02324278     0.43400
C2485       C  0.00679236  0.77452583  0.01334297    -0.05700
C2486       C  0.99153730  0.76396890  0.98141632    -0.33100
C2487       C  0.00040711  0.74868747  0.95809832     0.36100
C2488       C  0.52517592  0.74407344  0.96669801    -0.06100
C2489       C  0.54148373  0.75628134  0.99794687    -0.33000
C2490       C  0.53255091  0.77160249  0.02118963     0.36000
H2491       H  0.97177251  0.76638836  0.97521502     0.16400
O2492       O  0.98444332  0.73816388  0.92730650    -0.60500
H2493       H  0.56083682  0.75343786  0.00486421     0.16400
O2494       O  0.54740839  0.78118569  0.05273254    -0.60600
H2495       H  0.56446086  0.80247726  0.04862706     0.43400
H2496       H  0.96640929  0.71776633  0.93297132     0.43400
C2497       C  0.51636146  0.63946004  0.78041447    -0.05700
C2498       C  0.48476765  0.62337880  0.77192387    -0.33100
C2499       C  0.47521158  0.61868887  0.73691720     0.36100
C2500       C  0.99742125  0.63104911  0.70995688    -0.06100
C2501       C  0.02895930  0.64526460  0.71842176    -0.33000
C2502       C  0.03849065  0.64909459  0.75338628     0.36000
H2503       H  0.46748583  0.61571562  0.79252546     0.16400
O2504       O  0.44423124  0.60398742  0.72943814    -0.60500
H2505       H  0.04629814  0.65469912  0.69787695     0.16400
O2506       O  0.06948316  0.66428022  0.76086546    -0.60600
H2507       H  0.07572069  0.68628150  0.76213526     0.43400
H2508       H  0.43886787  0.62039312  0.72863602     0.43400
C2509       C  0.58372195  0.66502240  0.49121729    -0.05700
C2510       C  0.55533524  0.63703887  0.49189321    -0.33100
C2511       C  0.53576679  0.62807077  0.52143586     0.36100
C2512       C  0.54407248  0.64733439  0.55105147    -0.06100
C2513       C  0.57343395  0.67407542  0.55138180    -0.33000
C2514       C  0.59321642  0.68280447  0.52218716     0.36000
H2515       H  0.54763383  0.62243304  0.46893298     0.16400
O2516       O  0.50732159  0.60194896  0.51964063    -0.60500
H2517       H  0.58045539  0.68930504  0.57382360     0.16400
O2518       O  0.62089519  0.70984528  0.52366442    -0.60600
H2519       H  0.63587515  0.70422266  0.53274722     0.43400
H2520       H  0.51068304  0.58528469  0.52802903     0.43400
C2521       C  0.99302291  0.72962148  0.52521646    -0.05700
C2522       C  0.97262304  0.72829118  0.49935978    -0.33100
C2523       C  0.48128541  0.75272599  0.47672533     0.36100
C2524       C  0.51100013  0.77873575  0.47952957    -0.06100
C2525       C  0.53054909  0.78086261  0.50683314    -0.33000
C2526       C  0.52183346  0.75656655  0.52959366     0.36000
H2527       H  0.94992804  0.70814311  0.49639562     0.16400
O2528       O  0.96135409  0.74994942  0.45060292    -0.60500
H2529       H  0.55335214  0.80090039  0.50966106     0.16400
O2530       O  0.54237595  0.75886276  0.55470067    -0.60600
H2531       H  0.53990744  0.77053195  0.57419227     0.43400
H2532       H  0.94908087  0.75868843  0.46055446     0.43400
C2533       C  0.91358486  0.57440735  0.50116685    -0.05700
C2534       C  0.92187857  0.55172282  0.49639507    -0.33100
C2535       C  0.91168936  0.53185864  0.46735746     0.36100
C2536       C  0.89267968  0.53414457  0.44188054    -0.06100
C2537       C  0.88549701  0.55769092  0.44584367    -0.33000
C2538       C  0.89570913  0.57759054  0.47487665     0.36000
H2539       H  0.93589386  0.54877353  0.51572043     0.16400
O2540       O  0.91958059  0.50955312  0.46502078    -0.60500
H2541       H  0.87073406  0.56003877  0.42703144     0.16400
O2542       O  0.88689669  0.59919376  0.47781684    -0.60600
H2543       H  0.90297383  0.61735970  0.46500027     0.43400
H2544       H  0.93923629  0.51903270  0.45155828     0.43400
C2545       C  0.56985080  0.78473173  0.84534037    -0.05700
C2546       C  0.54817982  0.79231873  0.85824419    -0.33100
C2547       C  0.55450097  0.82279169  0.85783098     0.36100
C2548       C  0.58262348  0.84614085  0.84387048    -0.06100
C2549       C  0.60227374  0.83773049  0.82679602    -0.33000
C2550       C  0.59618396  0.80735877  0.82771207     0.36000
H2551       H  0.52776288  0.77518871  0.87197441     0.16400
O2552       O  0.53493802  0.83009658  0.87507802    -0.60500
H2553       H  0.62437362  0.85540848  0.81659540     0.16400
O2554       O  0.61746335  0.80071217  0.81401730    -0.60600
H2555       H  0.60982451  0.79257624  0.79022316     0.43400
H2556       H  0.54111126  0.83243703  0.90000666     0.43400
C2557       C  0.64803457  0.52630602  0.94037846    -0.05700
C2558       C  0.67465437  0.55567505  0.93847982    -0.33100
C2559       C  0.68429698  0.57609979  0.96700158     0.36100
C2560       C  0.66720431  0.56770582  0.99862460    -0.06100
C2561       C  0.63984069  0.53883896  0.00000202    -0.33000
C2562       C  0.63024351  0.51836011  0.97148397     0.36000
H2563       H  0.68894846  0.56256777  0.91511908     0.16400
O2564       O  0.71094412  0.60393911  0.96372934    -0.60500
H2565       H  0.62601876  0.53160129  0.02371407     0.16400
O2566       O  0.60452087  0.48987479  0.97534538    -0.60600
H2567       H  0.58674177  0.49278080  0.97042849     0.43400
H2568       H  0.72788847  0.59999787  0.96961924     0.43400
C2569       C  0.73058724  0.98385076  0.97018301    -0.05700
C2570       C  0.74279518  0.96519005  0.97965194    -0.33100
C2571       C  0.76905036  0.47665359  0.00037138     0.36100
C2572       C  0.78324687  0.50709020  0.01230244    -0.06100
C2573       C  0.77158954  0.02600672  0.00197534    -0.33000
C2574       C  0.74539439  0.01460274  0.98127018     0.39600
H2575       H  0.73233374  0.94171030  0.97050001     0.16400
O2576       O  0.78036244  0.45783731  0.00903876    -0.60500
H2577       H  0.78205863  0.54950868  0.01105510     0.16400
O2578       O  0.73452187  0.03372609  0.97221058    -0.60600
H2579       H  0.71962726  0.03120035  0.99093961     0.43400
H2580       H  0.79600296  0.46145542  0.99073705     0.43400
C2581       C  0.57737209  0.89961473  0.98655714    -0.05700
C2582       C  0.55323125  0.90615568  0.98982558    -0.33100
C2583       C  0.53452167  0.89809576  0.02006188     0.36100
C2584       C  0.53944730  0.88295657  0.04819261    -0.06100
C2585       C  0.56407629  0.87709250  0.04519579    -0.33000
C2586       C  0.58278527  0.88517427  0.01499632     0.36000
H2587       H  0.54862991  0.91750310  0.96868707     0.16400
O2588       O  0.51081385  0.90426172  0.02114635    -0.60500
H2589       H  0.56819551  0.86494835  0.06581359     0.16400
O2590       O  0.60515461  0.87715872  0.01287799    -0.60600
H2591       H  0.62313517  0.89351406  0.02564185     0.43400
H2592       H  0.51986334  0.92497692  0.03181432     0.43400
C2593       C  0.67096030  0.59217691  0.50093203    -0.05700
C2594       C  0.68806723  0.59904167  0.46953903    -0.33100
C2595       C  0.67873619  0.60792557  0.43921537     0.36100
C2596       C  0.65153504  0.60994748  0.43945898    -0.06100
C2597       C  0.63363357  0.60151851  0.47028489    -0.33000
C2598       C  0.64293844  0.59268950  0.50053378     0.36000
H2599       H  0.70925662  0.59821515  0.46855888     0.16400
O2600       O  0.69670837  0.61493485  0.40963483    -0.60500
H2601       H  0.61275447  0.60290723  0.47156928     0.16400
O2602       O  0.62465497  0.58544380  0.52986095    -0.60600
H2603       H  0.61003911  0.56305462  0.52815225     0.43400
H2604       H  0.71406307  0.63622033  0.41335256     0.43400
C2605       C  0.85634943  0.57892224  0.63900701    -0.05700
C2606       C  0.83536303  0.54967907  0.62591193    -0.33100
C2607       C  0.80362305  0.53981467  0.62391009     0.36100
C2608       C  0.79279651  0.55971862  0.63427761    -0.06100
C2609       C  0.81305304  0.58672839  0.65215680    -0.33000
C2610       C  0.84449466  0.59618699  0.65497646     0.36000
H2611       H  0.84388125  0.53601841  0.61347774     0.16400
O2612       O  0.78423977  0.51244373  0.60775834    -0.60500
H2613       H  0.80500574  0.60165545  0.66185291     0.16400
O2614       O  0.86417434  0.62400935  0.67016734    -0.60600
H2615       H  0.86546688  0.63966614  0.65353520     0.43400
H2616       H  0.77564547  0.49719318  0.62696403     0.43400
C2617       C  0.65814810  0.51279226  0.71048234    -0.05700
C2618       C  0.62805446  0.99298679  0.72312394    -0.33100
C2619       C  0.62320897  0.98166540  0.75775323     0.36100
C2620       C  0.64873036  0.99014730  0.78000205    -0.06100
C2621       C  0.67841367  0.01168600  0.76764395    -0.33000
C2622       C  0.68322241  0.52263674  0.73345280     0.36000
H2623       H  0.60851779  0.98493273  0.70564234     0.16400
O2624       O  0.59381641  0.96095205  0.76865454    -0.60500
H2625       H  0.69846366  0.01962281  0.78430444     0.16400
O2626       O  0.71281683  0.54287487  0.72245138    -0.60600
H2627       H  0.72251993  0.53021540  0.71793985     0.43400
H2628       H  0.58547062  0.97355500  0.77849667     0.43400
C2629       C  0.59518546  0.92817731  0.48719250    -0.05700
C2630       C  0.60134046  0.91851852  0.51908215    -0.33100
C2631       C  0.61067585  0.93743682  0.54888935     0.36100
C2632       C  0.61456575  0.96719627  0.54761256    -0.06100
C2633       C  0.60650919  0.97616977  0.51642407    -0.33000
C2634       C  0.59691868  0.95708060  0.48656487     0.36000
H2635       H  0.59959668  0.89629681  0.52091022     0.16400
O2636       O  0.61710760  0.92685343  0.57880854    -0.60500
H2637       H  0.60899189  0.99871058  0.51452244     0.16400
O2638       O  0.58954560  0.96716108  0.45688896    -0.60600
H2639       H  0.60957588  0.98070760  0.44507031     0.43400
H2640       H  0.59723911  0.91613880  0.59182399     0.43400
C2641       C  0.73577990  0.50653402  0.51458291    -0.05700
C2642       C  0.73493609  0.97918962  0.52332929    -0.33100
C2643       C  0.75133422  0.96893244  0.50351222     0.36100
C2644       C  0.76883961  0.98620873  0.47455499    -0.06100
C2645       C  0.76943045  0.01341396  0.46567584    -0.33000
C2646       C  0.75310177  0.52369121  0.48551869     0.36000
H2647       H  0.72254345  0.96633755  0.54639400     0.16400
O2648       O  0.75104087  0.94268259  0.51336959    -0.60500
H2649       H  0.78195314  0.02642464  0.44275202     0.16400
O2650       O  0.75361329  0.55010695  0.47590211    -0.60600
H2651       H  0.77402015  0.56710473  0.48360581     0.43400
H2652       H  0.73078129  0.92555629  0.50549943     0.43400
C2653       C  0.89820994  0.85166505  0.93964645    -0.05700
C2654       C  0.90307481  0.82660290  0.93762182    -0.33100
C2655       C  0.91346674  0.81745068  0.96659214     0.36100
C2656       C  0.91851423  0.83294806  0.99892199    -0.06100
C2657       C  0.91618015  0.85966759  0.99995746    -0.33000
C2658       C  0.90636061  0.86915202  0.97064333     0.36000
H2659       H  0.89687645  0.81279364  0.91401624     0.16400
O2660       O  0.91666294  0.79212414  0.96340645    -0.60500
H2661       H  0.92066383  0.87261857  0.02404244     0.16400
O2662       O  0.90150153  0.89346484  0.97391809    -0.60600
H2663       H  0.92142087  0.91173410  0.96707386     0.43400
H2664       H  0.93829815  0.80015263  0.95550508     0.43400
C2665       C  0.72984418  0.72016111  0.01692253    -0.05700
C2666       C  0.73917240  0.74992042  0.02854159    -0.33100
C2667       C  0.75565931  0.77483200  0.00634404     0.36100
C2668       C  0.76242484  0.76982498  0.97187326    -0.06100
C2669       C  0.75191296  0.73975922  0.96015578    -0.33000
C2670       C  0.73570346  0.71501069  0.98242557     0.36000
H2671       H  0.73527867  0.75402787  0.05547435     0.16400
O2672       O  0.76566953  0.80383826  0.01892393    -0.60500
H2673       H  0.75646381  0.73526594  0.93372557     0.16400
O2674       O  0.72559703  0.68582301  0.97035511    -0.60600
H2675       H  0.74411828  0.68350848  0.97014930     0.43400
H2676       H  0.78636433  0.81065993  0.02897546     0.43400
C2677       C  0.72097308  0.77014139  0.84695372    -0.05700
C2678       C  0.69954112  0.77603132  0.83082779    -0.33100
C2679       C  0.66813151  0.75351847  0.83035642     0.36100
C2680       C  0.65773307  0.72512299  0.84728625    -0.06100
C2681       C  0.67971046  0.71787842  0.85912289    -0.33000
C2682       C  0.71128352  0.74017151  0.85869734     0.36000
H2683       H  0.70666136  0.79889907  0.82149555     0.16400
O2684       O  0.64718671  0.76079491  0.81733263    -0.60500
H2685       H  0.67226576  0.69644570  0.87267564     0.16400
O2686       O  0.73189942  0.73374517  0.87434379    -0.60600
H2687       H  0.74083717  0.72753358  0.85494695     0.43400
H2688       H  0.64519114  0.77366581  0.83567697     0.43400
C2689       C  0.73190019  0.93208955  0.85234052    -0.05700
C2690       C  0.76218013  0.95318649  0.86347284    -0.33100
C2691       C  0.78549421  0.94543475  0.86277599     0.36100
C2692       C  0.77871838  0.91643650  0.85035979    -0.06100
C2693       C  0.75001849  0.89768261  0.83402427    -0.33000
C2694       C  0.72643965  0.90488787  0.83577640     0.36000
H2695       H  0.76696852  0.97435429  0.87620666     0.16400
O2696       O  0.81304285  0.96428385  0.87909919    -0.60500
H2697       H  0.74443494  0.87532675  0.82407005     0.16400
O2698       O  0.69764497  0.88433454  0.82317079    -0.60600
H2699       H  0.68817941  0.86784167  0.84097934     0.43400
H2700       H  0.82747724  0.97656978  0.86002396     0.43400
C2701       C  0.84194314  0.92325897  0.98997958    -0.05700
C2702       C  0.87263226  0.94768739  0.99377402    -0.33100
C2703       C  0.88192030  0.96695653  0.02340129     0.36100
C2704       C  0.86045157  0.96225248  0.05024428    -0.06100
C2705       C  0.83044462  0.93650272  0.04752703    -0.33000
C2706       C  0.82113823  0.91733166  0.01797261     0.36000
H2707       H  0.88947437  0.95251273  0.97322092     0.16400
O2708       O  0.91168741  0.99109254  0.02491579    -0.60500
H2709       H  0.81336018  0.93183824  0.06773203     0.16400
O2710       O  0.79146054  0.89295532  0.01683012    -0.60600
H2711       H  0.77882573  0.90141500  0.00768976     0.43400
H2712       H  0.92322750  0.98330927  0.03828915     0.43400
C2713       C  0.84178081  0.90704839  0.49229852    -0.05700
C2714       C  0.82240941  0.89672263  0.52196835    -0.33100
C2715       C  0.82997561  0.88528583  0.55137863     0.36100
C2716       C  0.85733040  0.88362056  0.55183086    -0.06100
C2717       C  0.87798855  0.89628033  0.52355137    -0.33000
C2718       C  0.87056424  0.90800864  0.49414350     0.36000
H2719       H  0.80061525  0.89639386  0.52201017     0.16400
O2720       O  0.80952342  0.87424762  0.57890701    -0.60500
H2721       H  0.89907512  0.89523363  0.52310585     0.16400
O2722       O  0.89107888  0.91889900  0.46668978    -0.60600
H2723       H  0.90536470  0.94089071  0.47215287     0.43400
H2724       H  0.81758765  0.89119199  0.59619279     0.43400
C2725       C  0.73035008  0.72115797  0.47561709    -0.05700
C2726       C  0.72750209  0.73635590  0.50482357    -0.33100
C2727       C  0.75161730  0.75107519  0.52817039     0.36100
C2728       C  0.77899061  0.75002531  0.52294110    -0.06100
C2729       C  0.78116242  0.73330997  0.49468414    -0.33000
C2730       C  0.75704795  0.71896984  0.47091393     0.36000
H2731       H  0.70692357  0.73799553  0.50881277     0.16400
O2732       O  0.74821146  0.76682743  0.55557264    -0.60500
H2733       H  0.80173290  0.73170151  0.49062099     0.16400
O2734       O  0.76037712  0.70408360  0.44253963    -0.60600
H2735       H  0.77117371  0.72017235  0.42453830     0.43400
H2736       H  0.75598200  0.78792350  0.54663825     0.43400
C2737       C  0.73426567  0.64606541  0.64468151    -0.05700
C2738       C  0.72767584  0.66921478  0.63649196    -0.33100
C2739       C  0.75104885  0.70024536  0.63768577     0.36100
C2740       C  0.78157060  0.70834572  0.64661652    -0.06100
C2741       C  0.78720856  0.68553281  0.65876665    -0.33000
C2742       C  0.76370187  0.65462178  0.65827189     0.36000
H2743       H  0.70554704  0.66318092  0.62512486     0.16400
O2744       O  0.74488390  0.72195749  0.62498663    -0.60500
H2745       H  0.81050999  0.69133082  0.66561109     0.16400
O2746       O  0.77073339  0.63253468  0.66702082    -0.60600
H2747       H  0.78284983  0.63161361  0.64690554     0.43400
H2748       H  0.74228049  0.73203435  0.64602587     0.43400
C2749       C  0.86339854  0.86147709  0.78123453    -0.05700
C2750       C  0.88099087  0.84787240  0.77201219    -0.33100
C2751       C  0.88613323  0.84385145  0.73679357     0.36100
C2752       C  0.87277057  0.85264757  0.71035618    -0.06100
C2753       C  0.85639955  0.86750501  0.71959189    -0.33000
C2754       C  0.85202227  0.87232276  0.75474014     0.36000
H2755       H  0.88969839  0.83923323  0.79219614     0.16400
O2756       O  0.90149403  0.82853914  0.72861819    -0.60500
H2757       H  0.84576129  0.87414017  0.69947091     0.16400
O2758       O  0.83390118  0.88473490  0.76288739    -0.60600
H2759       H  0.84843871  0.90715441  0.76450190     0.43400
H2760       H  0.92356257  0.84474385  0.72648519     0.43400
C2761       C  0.93177172  0.77257080  0.64293361    -0.05700
C2762       C  0.91474087  0.74587912  0.66320736    -0.33100
C2763       C  0.92323803  0.72336008  0.66456048     0.36100
C2764       C  0.94939616  0.72760041  0.64605823    -0.06100
C2765       C  0.96890490  0.75615808  0.63021780    -0.33000
C2766       C  0.96018843  0.77859106  0.62843050     0.36000
H2767       H  0.89264764  0.74070139  0.67429609     0.16400
O2768       O  0.90387094  0.69590013  0.68048717    -0.60500
H2769       H  0.98907761  0.75968232  0.61563010     0.16400
O2770       O  0.97740638  0.80430699  0.60845641    -0.60600
H2771       H  0.97056814  0.79794537  0.58415772     0.43400
H2772       H  0.91335838  0.69707393  0.70344669     0.43400
C2773       C  0.97097158  0.85021143  0.43942562    -0.05700
C2774       C  0.94534464  0.82019250  0.44183337    -0.33100
C2775       C  0.92648668  0.81009829  0.47190700     0.36100
C2776       C  0.93295305  0.82999757  0.50076233    -0.06100
C2777       C  0.95764389  0.86041835  0.49761361    -0.33000
C2778       C  0.97642127  0.87052918  0.46757297     0.36000
H2779       H  0.94047357  0.80390324  0.42082998     0.16400
O2780       O  0.90231764  0.78045275  0.47298404    -0.60500
H2781       H  0.96309279  0.87649167  0.51899515     0.16400
O2782       O  0.00099055  0.89997432  0.46695915    -0.60600
H2783       H  0.99289039  0.91233764  0.45619023     0.43400
H2784       H  0.88437345  0.78131996  0.46349727     0.43400
loop_ 
_geom_bond_atom_site_label_1 
_geom_bond_atom_site_label_2 
_geom_bond_distance 
_geom_bond_site_symmetry_2 
_ccdc_geom_bond_type 
Fe1          O17   2.043       .  S
Fe1           O7   2.036       .  S
Fe1          O14   2.048       .  S
Fe1           O6   2.063       .  S
Fe1          O12   1.966       .  S
Fe2           O5   2.055       .  S
Fe2           O9   2.123       .  S
Fe2          O13   2.073       .  S
Fe2          O18   2.126       .  S
Fe2          O12   1.965       .  S
Fe3          O21   2.092       .  S
Fe3           O8   2.027       .  S
Fe3          O15   2.030       .  S
Fe3           O4   2.093       .  S
Fe3          O12   1.955       .  S
O4           C11   1.276       .  A
O5           C19   1.264       .  A
O6           C11   1.271       .  A
O7           C10   1.262       .  A
O8           C20   1.266       .  A
O9           C22   1.284       .  A
C10          O15   1.262       .  A
C10         C640   1.460       .  S
C11         C652   1.479       .  S
O13          C16   1.267       .  A
O14          C16   1.262       .  A
C16         C664   1.472       .  S
O17          C22   1.268       .  A
O18          C20   1.284       .  A
C19          O21   1.271       .  A
C19         C688   1.500       .  S
C20         C673   1.479       .  S
C22         C628   1.495       .  S
Fe23         O39   2.029       .  S
Fe23         O29   2.057       .  S
Fe23         O36   2.057       .  S
Fe23         O28   2.058       .  S
Fe23         O34   1.966       .  S
Fe24         O27   2.061       .  S
Fe24         O31   2.119       .  S
Fe24         O35   2.071       .  S
Fe24         O40   2.130       .  S
Fe24         O34   1.962       .  S
Fe25         O43   2.090       .  S
Fe25         O30   2.017       .  S
Fe25         O37   2.025       .  S
Fe25         O26   2.097       .  S
Fe25         O34   1.944       .  S
O26          C33   1.277       .  A
O27          C41   1.264       .  A
O28          C33   1.270       .  A
O29          C32   1.266       .  A
O30          C42   1.265       .  A
O31          C44   1.284       .  A
C32          O37   1.259       .  A
C32         C580   1.464       .  S
C33         C589   1.475       .  S
O35          C38   1.267       .  A
O36          C38   1.264       .  A
C38         C661   1.473       .  S
O39          C44   1.268       .  A
O40          C42   1.284       .  A
C41          O43   1.271       .  A
C41         C613   1.502       .  S
C42         C604   1.480       .  S
C44         C565   1.482       .  S
Fe45         O51   2.035       .  S
Fe45         O58   2.031       .  S
Fe45         O50   2.084       .  S
Fe45        O757   2.072   1_545  S
Fe45         O56   1.949       .  S
Fe46         O49   2.086       .  S
Fe46         O53   2.096       .  S
Fe46         O57   2.123       .  S
Fe46         O62   2.107       .  S
Fe46         O56   1.951       .  S
Fe47         O65   2.083       .  S
Fe47         O52   2.052       .  S
Fe47         O59   2.043       .  S
Fe47         O48   2.080       .  S
Fe47         O56   1.933       .  S
O48          C55   1.275       .  A
O49          C63   1.272       .  A
O50          C55   1.271       .  A
O51          C54   1.265       .  A
O52          C64   1.269       .  A
O53         C762   1.273   1_545  A
C54          O59   1.266       .  A
C54         C553   1.454       .  S
C55         C520   1.489       .  S
O57          C60   1.279       .  A
O58          C60   1.266       .  A
C60         C529   1.481       .  S
O61        Fe741   2.072       .  S
O61          C66   1.268       .  A
O62          C64   1.281       .  A
C63          O65   1.272       .  A
C63         C505   1.504       .  S
C64         C649   1.479       .  S
C66         O749   1.273       .  A
C66         C544   1.503       .  S
Fe67         O73   2.033       .  S
Fe67         O80   2.031       .  S
Fe67         O72   2.081       .  S
Fe67        O779   2.072       .  S
Fe67         O78   1.948       .  S
Fe68         O71   2.096       .  S
Fe68         O75   2.092       .  S
Fe68         O79   2.128       .  S
Fe68         O84   2.110       .  S
Fe68         O78   1.953       .  S
Fe69         O87   2.079       .  S
Fe69         O74   2.042       .  S
Fe69         O81   2.047       .  S
Fe69         O70   2.076       .  S
Fe69         O78   1.937       .  S
O70          C77   1.274       .  A
O71          C85   1.275       .  A
O72          C77   1.271       .  A
O73          C76   1.264       .  A
O74          C86   1.267       .  A
O75         C784   1.273       .  A
C76          O81   1.266       .  A
C76         C481   1.462       .  S
C77         C601   1.486       .  S
O79          C82   1.281       .  A
O80          C82   1.267       .  A
C82         C532   1.494       .  S
O83        Fe763   2.072   1_545  S
O83          C88   1.268       .  A
O84          C86   1.281       .  A
C85          O87   1.273       .  A
C85         C493   1.503       .  S
C86         C460   1.476       .  S
C88         O771   1.273   1_545  A
C88         C469   1.501       .  S
Fe89         O95   2.045       .  S
Fe89        O102   2.053       .  S
Fe89         O94   2.065       .  S
Fe89       O1497   2.037       .  S
Fe89        O100   1.970       .  S
Fe90         O93   2.055       .  S
Fe90         O97   2.124       .  S
Fe90        O101   2.075       .  S
Fe90        O106   2.133       .  S
Fe90        O100   1.961       .  S
Fe91        O109   2.096       .  S
Fe91         O96   2.022       .  S
Fe91        O103   2.025       .  S
Fe91         O92   2.096       .  S
Fe91        O100   1.948       .  S
O92          C99   1.276       .  A
O93         C107   1.263       .  A
O94          C99   1.272       .  A
O95          C98   1.263       .  A
O96         C108   1.267       .  A
O97        C1502   1.285       .  A
C98         O103   1.261       .  A
C98         C433   1.457       .  S
C99         C676   1.477       .  S
O101        C104   1.267       .  A
O102        C104   1.263       .  A
C104        C412   1.475       .  S
O105      Fe1481   2.037   1_455  S
O105        C110   1.269       .  A
O106        C108   1.286       .  A
C107        O109   1.271       .  A
C107        C445   1.504       .  S
C108        C517   1.483       .  S
C110       O1489   1.285   1_455  A
C110        C424   1.492       .  S
Fe111       O117   2.039       .  S
Fe111       O124   2.049       .  S
Fe111       O116   2.065       .  S
Fe111      O1519   2.040   1_455  S
Fe111       O122   1.968       .  S
Fe112       O115   2.054       .  S
Fe112       O119   2.117       .  S
Fe112       O123   2.074       .  S
Fe112       O128   2.120       .  S
Fe112       O122   1.968       .  S
Fe113       O131   2.100       .  S
Fe113       O118   2.026       .  S
Fe113       O125   2.026       .  S
Fe113       O114   2.110       .  S
Fe113       O122   1.954       .  S
O114        C121   1.280       .  A
O115        C129   1.262       .  A
O116        C121   1.272       .  A
O117        C120   1.260       .  A
O118        C130   1.267       .  A
O119       C1524   1.284   1_455  A
C120        O125   1.260       .  A
C120        C400   1.461       .  S
C121        C457   1.484       .  S
O123        C126   1.266       .  A
O124        C126   1.261       .  A
C126        C409   1.474       .  S
O127      Fe1503   2.040       .  S
O127        C132   1.270       .  A
O128        C130   1.283       .  A
C129        O131   1.272       .  A
C129        C373   1.506       .  S
C130        C592   1.477       .  S
C132       O1511   1.284       .  A
C132        C385   1.490       .  S
Fe133       O149   2.029       .  S
Fe133       O139   2.071       .  S
Fe133       O146   2.089       .  S
Fe133       O138   2.029       .  S
Fe133       O144   1.954       .  S
Fe134       O137   2.076       .  S
Fe134       O141   2.039       .  S
Fe134       O145   2.078       .  S
Fe134       O150   2.043       .  S
Fe134       O144   1.929       .  S
Fe135       O153   2.085       .  S
Fe135       O140   2.109       .  S
Fe135       O147   2.088       .  S
Fe135       O136   2.116       .  S
Fe135       O144   1.956       .  S
O136        C143   1.279       .  A
O137        C151   1.270       .  A
O138        C143   1.267       .  A
O139        C142   1.267       .  A
O140        C152   1.283       .  A
O141        C154   1.267       .  A
C142        O147   1.272       .  A
C142        C508   1.501       .  S
C143        C349   1.480       .  S
O145        C148   1.272       .  A
O146        C148   1.272       .  A
C148        C337   1.487       .  S
O149        C154   1.262       .  A
O150        C152   1.269       .  A
C151        O153   1.272       .  A
C151        C421   1.501       .  S
C152        C361   1.479       .  S
C154        C637   1.451       .  S
Fe155       O171   2.032       .  S
Fe155       O161   2.075       .  S
Fe155       O168   2.076       .  S
Fe155       O160   2.033       .  S
Fe155       O166   1.959       .  S
Fe156       O159   2.083       .  S
Fe156       O163   2.045       .  S
Fe156       O167   2.081       .  S
Fe156       O172   2.050       .  S
Fe156       O166   1.935       .  S
Fe157       O175   2.081       .  S
Fe157       O162   2.105       .  S
Fe157       O169   2.085       .  S
Fe157       O158   2.109       .  S
Fe157       O166   1.961       .  S
O158        C165   1.274       .  A
O159        C173   1.270       .  A
O160        C165   1.263       .  A
O161        C164   1.270       .  A
O162        C174   1.283       .  A
O163        C176   1.268       .  A
C164        O169   1.274       .  A
C164        C376   1.502       .  S
C165        C352   1.471       .  S
O167        C170   1.273       .  A
O168        C170   1.269       .  A
C170        C313   1.488       .  S
O171        C176   1.264       .  A
O172        C174   1.271       .  A
C173        O175   1.269       .  A
C173        C472   1.504   1_554  S
C174        C325   1.475       .  S
C176        C577   1.448       .  S
Fe177       O193   2.033       .  S
Fe177       O190   2.070       .  S
Fe177       O182   2.028       .  S
Fe177       O879   2.064       .  S
Fe177       O188   1.956       .  S
Fe178       O181   2.088       .  S
Fe178       O185   2.047       .  S
Fe178       O189   2.090       .  S
Fe178       O194   2.045       .  S
Fe178       O188   1.944       .  S
Fe179       O197   2.083       .  S
Fe179       O184   2.110       .  S
Fe179       O191   2.095       .  S
Fe179       O180   2.122       .  S
Fe179       O188   1.960       .  S
O180        C187   1.279       .  A
O181        C195   1.275       .  A
O182        C187   1.266       .  A
O183       Fe873   2.064   1_545  S
O183        C186   1.265       .  A
O184        C196   1.281       .  A
O185        C198   1.266       .  A
C186        O887   1.272   1_545  A
C186        C448   1.502       .  S
C187        C301   1.483       .  S
O189        C192   1.275       .  A
O190        C192   1.269       .  A
O191        C882   1.272       .  A
C192        C289   1.491       .  S
O193        C198   1.266       .  A
O194        C196   1.268       .  A
C195        O197   1.271       .  A
C195        C625   1.505       .  S
C196        C340   1.478       .  S
C198        C556   1.457       .  S
Fe199       O215   2.045       .  S
Fe199       O212   2.075       .  S
Fe199       O204   2.033       .  S
Fe199       O901   2.063   1_545  S
Fe199       O210   1.954       .  S
Fe200       O203   2.074       .  S
Fe200       O207   2.035       .  S
Fe200       O211   2.082       .  S
Fe200       O216   2.034       .  S
Fe200       O210   1.939       .  S
Fe201       O219   2.086       .  S
Fe201       O206   2.121       .  S
Fe201       O213   2.099       .  S
Fe201       O202   2.124       .  S
Fe201       O210   1.960       .  S
O202        C209   1.281       .  A
O203        C217   1.272       .  A
O204        C209   1.268       .  A
O205       Fe895   2.063       .  S
O205        C208   1.265       .  A
O206        C218   1.284       .  A
O207        C220   1.264       .  A
C208        O909   1.273       .  A
C208        C616   1.501       .  S
C209        C304   1.495       .  S
O211        C214   1.275       .  A
O212        C214   1.269       .  A
O213        C904   1.273   1_545  A
C214        C328   1.489       .  S
O215        C220   1.266       .  A
O216        C218   1.265       .  A
C217        O219   1.272       .  A
C217        C388   1.500       .  S
C218        C277   1.481       .  S
C220        C484   1.461       .  S
Fe221       O237   2.025       .  S
Fe221       O234   2.090       .  S
Fe221       O226   2.031       .  S
Fe221      O1619   2.073       .  S
Fe221       O232   1.954       .  S
Fe222       O225   2.076       .  S
Fe222       O229   2.040       .  S
Fe222       O233   2.082       .  S
Fe222       O238   2.048       .  S
Fe222       O232   1.929       .  S
Fe223       O241   2.073       .  S
Fe223       O228   2.107       .  S
Fe223       O235   2.086       .  S
Fe223       O224   2.106       .  S
Fe223       O232   1.961       .  S
O224        C231   1.275       .  A
O225        C239   1.270       .  A
O226        C231   1.266       .  A
O227      Fe1613   2.073   1_455  S
O227        C230   1.270       .  A
O228        C240   1.283       .  A
O229        C242   1.267       .  A
C230       O1627   1.271   1_455  A
C230        C496   1.504       .  S
C231        C268   1.470       .  S
O233        C236   1.274       .  A
O234        C236   1.272       .  A
O235       C1622   1.271       .  A
C236        C280   1.493       .  S
O237        C242   1.262       .  A
O238        C240   1.270       .  A
C239        O241   1.268       .  A
C239        C568   1.497   1_554  S
C240        C316   1.478       .  S
C242        C397   1.446       .  S
Fe243       O259   2.028       .  S
Fe243       O256   2.083       .  S
Fe243       O248   2.025       .  S
Fe243      O1641   2.070   1_455  S
Fe243       O254   1.949       .  S
Fe244       O247   2.080       .  S
Fe244       O251   2.035       .  S
Fe244       O255   2.082       .  S
Fe244       O260   2.039       .  S
Fe244       O254   1.928       .  S
Fe245       O263   2.091       .  S
Fe245       O250   2.106       .  S
Fe245       O257   2.084       .  S
Fe245       O246   2.114       .  S
Fe245       O254   1.954       .  S
O246        C253   1.277       .  A
O247        C261   1.272       .  A
O248        C253   1.263       .  A
O249      Fe1635   2.070       .  S
O249        C252   1.269       .  A
O250        C262   1.283       .  A
O251        C264   1.266       .  A
C252       O1649   1.273       .  A
C252        C685   1.498       .  S
C253        C265   1.481       .  S
O255        C258   1.275       .  A
O256        C258   1.271       .  A
O257       C1644   1.273   1_455  A
C258        C364   1.493       .  S
O259        C264   1.262       .  A
O260        C262   1.268       .  A
C261        O263   1.272       .  A
C261        C541   1.506       .  S
C262        C292   1.472       .  S
C264        C436   1.456       .  S
C265        C266   1.407       .  A
C265        C270   1.414   1_455  A
C266        C267   1.407       .  A
C266        H271   1.083       .  S
C267       C1660   1.409   1_455  A
C267        O272   1.371       .  S
C268        C269   1.397       .  A
C268       C1659   1.409       .  A
C269       C1662   1.391       .  A
C269        H273   1.084       .  S
C270       C1661   1.391       .  A
C270        O274   1.373       .  S
O272        H276   0.992       .  S
O274       H1667   0.993       .  S
H275       O1666   0.993       .  S
C277        C278   1.405       .  A
C277        C282   1.413       .  A
C278        C279   1.410       .  A
C278        H283   1.084       .  S
C279        C280   1.415       .  A
C279        O284   1.371       .  S
C280        C281   1.402       .  A
C281        C282   1.404       .  A
C281        H285   1.083       .  S
C282        O286   1.373       .  S
O284        H288   0.992       .  S
O286        H287   0.992       .  S
C289        C290   1.411       .  A
C289        C294   1.407       .  A
C290        C291   1.404       .  A
C290        H295   1.084       .  S
C291        C292   1.404       .  A
C291        O296   1.371       .  S
C292        C293   1.408       .  A
C293        C294   1.404       .  A
C293        H297   1.084       .  S
C294        O298   1.371       .  S
O296        H300   0.992       .  S
O298        H299   0.992       .  S
C301        C306   1.407       .  A
C301        C998   1.407       .  A
C302        C303   1.414   1_565  A
C302        C997   1.407       .  A
C302        H307   1.083   1_565  S
C303        C304   1.415       .  A
C303        O308   1.370       .  S
C304       C1001   1.408   1_545  A
C305        C306   1.391       .  A
C305       C1000   1.408       .  A
C305        H309   1.083       .  S
C306        O310   1.373       .  S
O308        H312   0.992       .  S
O310        H311   0.992       .  S
C313        C314   1.401       .  A
C313        C318   1.414       .  A
C314        C315   1.402       .  A
C314        H319   1.081       .  S
C315        C316   1.412       .  A
C315        O320   1.373       .  S
C316        C317   1.402       .  A
C317        C318   1.407       .  A
C317        H321   1.084       .  S
C318        O322   1.371       .  S
O320        H324   0.992       .  S
O322        H323   0.992       .  S
C325        C326   1.401       .  A
C325        C330   1.411       .  A
C326        C327   1.406       .  A
C326        H331   1.084       .  S
C327        C328   1.417       .  A
C327        O332   1.371       .  S
C328        C329   1.401       .  A
C329        C330   1.402       .  A
C329        H333   1.083       .  S
C330        O334   1.371       .  S
O332        H336   0.992   1_545  S
O334        H335   0.992       .  S
C337        C338   1.403       .  A
C337        C342   1.413       .  A
C338        C339   1.406       .  A
C338        H343   1.084       .  S
C339        C340   1.411       .  A
C339        O344   1.371       .  S
C340        C341   1.404       .  A
C341        C342   1.406       .  A
C341        H345   1.084       .  S
C342        O346   1.372       .  S
O344        H348   0.990       .  S
O346        H347   0.991       .  S
C349        C350   1.405       .  A
C349        C354   1.410       .  A
C350        C351   1.391       .  A
C350        H355   1.084       .  S
C351        C352   1.403       .  A
C351        O356   1.372       .  S
C352        C353   1.407       .  A
C353        C354   1.409       .  A
C353        H357   1.083       .  S
C354        O358   1.371       .  S
O356        H360   0.992       .  S
O358        H359   0.992       .  S
C361        C362   1.402       .  A
C361        C366   1.412       .  A
C362        C363   1.409       .  A
C362        H367   1.084       .  S
C363        C364   1.418       .  A
C363        O368   1.371       .  S
C364        C365   1.403       .  A
C365        C366   1.400       .  A
C365        H369   1.084       .  S
C366        O370   1.372       .  S
O368        H372   0.993       .  S
O370        H371   0.991       .  S
C373        C374   1.407   1_556  A
C373        C378   1.419       .  A
C374        C375   1.409       .  A
C374        H379   1.083       .  S
C375        C376   1.418       .  A
C375        O380   1.371       .  S
C376        C377   1.405       .  A
C377        C378   1.404   1_554  A
C377        H381   1.083       .  S
C378        O382   1.371       .  S
O380        H384   0.992       .  S
O382        H383   0.992       .  S
C385        C386   1.406       .  A
C385        C390   1.413       .  A
C386        C387   1.409       .  A
C386       H1783   1.084       .  S
C387        C388   1.418   1_556  A
C387        O392   1.371   1_556  S
C388        C389   1.406   1_554  A
C389        C390   1.399       .  A
C389        H393   1.083       .  S
C390        O394   1.372       .  S
H391       C1778   1.084   1_455  S
O392        H396   0.992       .  S
O394        H395   0.992       .  S
C397        C398   1.397   1_554  A
C397       C1794   1.404       .  A
C398        C399   1.385       .  A
C398        H403   1.084       .  S
C399       C1792   1.413       .  A
C399        O404   1.372       .  S
C400        C401   1.404       .  A
C400       C1791   1.413       .  A
C401        C402   1.387   1_556  A
C401        H405   1.083   1_556  S
C402       C1789   1.404       .  A
C402        O406   1.372       .  S
O404        H408   0.992       .  S
O406        H407   0.992       .  S
C409        C410   1.406   1_455  A
C409       C1806   1.406       .  A
C410        C411   1.402       .  A
C410        H415   1.084       .  S
C411       C1804   1.406       .  A
C411        O416   1.372       .  S
C412        C413   1.406       .  A
C412       C1803   1.406       .  A
C413        C414   1.401       .  A
C413        H417   1.084       .  S
C414       C1801   1.406       .  A
C414        O418   1.372       .  S
O416        H420   0.992       .  S
O418        H419   0.992       .  S
C421        C422   1.412       .  A
C421        C426   1.414       .  A
C422        C423   1.408       .  A
C422        H427   1.083       .  S
C423        C424   1.409       .  A
C423        O428   1.371       .  S
C424        C425   1.408       .  A
C425        C426   1.403       .  A
C425        H429   1.084       .  S
C426        O430   1.371       .  S
O428        H432   0.993       .  S
O430        H431   0.991       .  S
C433        C434   1.403       .  A
C433       C1830   1.408       .  A
C434       C1827   1.387       .  A
C434        H439   1.084       .  S
C435        C436   1.407   1_655  A
C435       C1826   1.387       .  A
C435       O1832   1.372       .  S
C436        C437   1.402       .  A
C437        C438   1.385       .  A
C437        H441   1.084       .  S
C438       C1825   1.408   1_455  A
C438        O442   1.372       .  S
O440       C1827   1.372       .  S
O440        H444   0.993       .  S
O442        H443   0.992       .  S
C445        C446   1.412       .  A
C445        C450   1.412       .  A
C446        C447   1.406       .  A
C446        H451   1.083       .  S
C447        C448   1.411       .  A
C447        O452   1.371       .  S
C448        C449   1.412       .  A
C449        C450   1.407       .  A
C449        H453   1.083       .  S
C450        O454   1.371       .  S
O452        H456   0.992       .  S
O454        H455   0.992       .  S
C457        C458   1.406       .  A
C457        C462   1.405       .  A
C458        C459   1.406       .  A
C458        H463   1.084       .  S
C459        C460   1.407       .  A
C459        O464   1.372       .  S
C460        C461   1.409       .  A
C461        C462   1.405       .  A
C461        H465   1.084       .  S
C462        O466   1.369       .  S
O464        H468   0.991       .  S
O466        H467   0.992       .  S
C469        C470   1.410       .  A
C469        C474   1.413       .  A
C470        C471   1.406       .  A
C470        H475   1.083       .  S
C471        C472   1.413       .  A
C471        O476   1.371       .  S
C472        C473   1.411   1_556  A
C473        C474   1.408   1_554  A
C473        H477   1.083       .  S
C474        O478   1.372   1_545  S
O476        H480   0.992       .  S
O478        H479   0.992       .  S
C481        C482   1.407       .  A
C481        C486   1.406       .  A
C482       C1179   1.390   1_556  A
C482        H487   1.084       .  S
C483        C484   1.404   1_565  A
C483       C1178   1.390   1_554  A
C483        O488   1.372       .  S
C484       C1181   1.406       .  A
C485        C486   1.388   1_554  A
C485       C1180   1.406       .  A
C485       H1185   1.084       .  S
C486        O490   1.373       .  S
O488        H492   0.993   1_554  S
H489       C1181   1.084       .  S
O490        H491   0.991       .  S
C493        C494   1.409       .  A
C493        C498   1.413   1_556  A
C494        C495   1.408   1_556  A
C494        H499   1.083       .  S
C495        C496   1.415       .  A
C495        O500   1.371       .  S
C496        C497   1.410       .  A
C497        C498   1.407       .  A
C497        H501   1.083       .  S
C498        O502   1.371       .  S
O500        H504   0.993       .  S
O502        H503   0.991       .  S
C505        C506   1.408       .  A
C505        C510   1.417       .  A
C506        C507   1.409       .  A
C506        H511   1.083       .  S
C507        C508   1.416       .  A
C507        O512   1.372       .  S
C508        C509   1.406       .  A
C509        C510   1.405       .  A
C509        H513   1.083       .  S
C510        O514   1.371       .  S
O512        H516   0.994       .  S
O514        H515   0.992       .  S
C517        C518   1.404       .  A
C517        C522   1.413       .  A
C518        C519   1.408       .  A
C518        H523   1.084       .  S
C519        C520   1.415       .  A
C519        O524   1.371       .  S
C520        C521   1.400       .  A
C521        C522   1.401       .  A
C521        H525   1.081       .  S
C522        O526   1.373       .  S
O524        H528   0.992   1_545  S
O526        H527   0.993       .  S
C529        C534   1.405       .  A
C529       C1226   1.408   1_545  A
C530        C531   1.414       .  A
C530       C1225   1.408       .  A
C530        H535   1.083       .  S
C531        C532   1.414       .  A
C531        O536   1.370       .  S
C532        C533   1.408       .  A
C533       C1230   1.393       .  A
C533        H537   1.084       .  S
C534       C1229   1.393       .  A
C534        O538   1.374       .  S
O536        H540   0.992       .  S
O538        H539   0.993       .  S
C541        C542   1.407       .  A
C541        C546   1.418       .  A
C542        C543   1.405       .  A
C542        H547   1.083       .  S
C543        C544   1.415       .  A
C543        O548   1.371       .  S
C544        C545   1.408       .  A
C545        C546   1.411       .  A
C545        H549   1.084       .  S
C546        O550   1.372       .  S
O548        H552   0.992       .  S
O550        H551   0.992       .  S
C553        C558   1.405       .  A
C553       C1250   1.401   1_545  A
C554        C555   1.390       .  A
C554       C1249   1.401       .  A
C554        H559   1.084       .  S
C555        C556   1.407       .  A
C555        O560   1.373       .  S
C556        C557   1.402       .  A
C557       C1254   1.389       .  A
C557        H561   1.084       .  S
C558       C1253   1.389       .  A
C558        O562   1.373       .  S
O560        H564   0.992       .  S
O562        H563   0.992       .  S
C565        C566   1.406       .  A
C565        C570   1.407       .  A
C566        C567   1.402       .  A
C566        H571   1.084       .  S
C567        C568   1.413       .  A
C567        O572   1.371       .  S
C568        C569   1.412       .  A
C569        C570   1.405       .  A
C569        H573   1.083   1_556  S
C570        O574   1.371       .  S
O572        H576   0.992       .  S
O574        H575   0.993       .  S
C577        C578   1.400       .  A
C577        C582   1.400   1_554  A
C578        C579   1.392       .  A
C578        H583   1.084       .  S
C579        C580   1.411   1_554  A
C579        O584   1.372       .  S
C580        C581   1.404       .  A
C581        C582   1.387       .  A
C581        H585   1.081       .  S
C582        O586   1.373       .  S
O584        H588   0.992       .  S
O586        H587   0.992       .  S
C589        C590   1.397       .  A
C589        C594   1.411       .  A
C590        C591   1.402       .  A
C590        H595   1.084       .  S
C591        C592   1.413       .  A
C591        O596   1.371       .  S
C592        C593   1.401       .  A
C593        C594   1.405       .  A
C593        H597   1.084       .  S
C594        O598   1.370       .  S
O596        H600   0.992       .  S
O598        H599   0.991       .  S
C601        C602   1.411       .  A
C601        C606   1.406       .  A
C602        C603   1.406       .  A
C602        H607   1.084       .  S
C603        C604   1.406       .  A
C603        O608   1.371       .  S
C604        C605   1.409       .  A
C605        C606   1.401       .  A
C605        H609   1.084       .  S
C606        O610   1.373       .  S
O608        H612   0.992       .  S
O610        H611   0.992       .  S
C613        C614   1.412       .  A
C613        C618   1.412   1_556  A
C614        C615   1.408   1_556  A
C614        H619   1.083       .  S
C615        C616   1.412       .  A
C615        O620   1.371       .  S
C616        C617   1.411       .  A
C617        C618   1.404       .  A
C617        H621   1.083       .  S
C618        O622   1.372       .  S
O620        H624   0.992       .  S
O622        H623   0.991       .  S
C625        C626   1.407       .  A
C625        C630   1.420       .  A
C626        C627   1.404       .  A
C626        H631   1.083       .  S
C627        C628   1.414       .  A
C627        O632   1.372       .  S
C628        C629   1.404       .  A
C629        C630   1.409       .  A
C629        H633   1.084       .  S
C630        O634   1.371       .  S
O632        H636   0.990       .  S
O634        H635   0.994       .  S
C637        C638   1.398       .  A
C637        C642   1.406       .  A
C638        C639   1.382       .  A
C638        H643   1.084       .  S
C639        C640   1.411       .  A
C639        O644   1.372       .  S
C640        C641   1.404       .  A
C641        C642   1.390       .  A
C641        H645   1.084       .  S
C642        O646   1.372       .  S
O644        H648   0.993       .  S
O646        H647   0.991       .  S
C649        C650   1.402       .  A
C649        C654   1.413       .  A
C650        C651   1.406       .  A
C650        H655   1.084       .  S
C651        C652   1.413       .  A
C651        O656   1.371       .  S
C652        C653   1.399       .  A
C653        C654   1.403       .  A
C653        H657   1.084       .  S
C654        O658   1.371       .  S
O656        H660   0.992       .  S
O658        H659   0.991       .  S
C661        C662   1.406       .  A
C661        C666   1.406       .  A
C662        C663   1.401       .  A
C662        H667   1.084       .  S
C663        C664   1.406       .  A
C663        O668   1.372       .  S
C664        C665   1.405       .  A
C665        C666   1.399       .  A
C665        H669   1.084       .  S
C666        O670   1.371       .  S
O668        H672   0.993       .  S
O670        H671   0.992       .  S
C673        C674   1.409       .  A
C673        C678   1.407       .  A
C674        C675   1.402       .  A
C674        H679   1.084       .  S
C675        C676   1.403       .  A
C675        O680   1.370       .  S
C676        C677   1.407       .  A
C677        C678   1.406       .  A
C677        H681   1.084       .  S
C678        O682   1.373       .  S
O680        H684   0.987       .  S
O682        H683   0.986       .  S
C685        C686   1.411       .  A
C685        C690   1.412       .  A
C686        C687   1.406       .  A
C686        H691   1.083       .  S
C687        C688   1.412       .  A
C687        O692   1.371       .  S
C688        C689   1.410       .  A
C689        C690   1.403       .  A
C689        H693   1.083       .  S
C690        O694   1.371       .  S
O692        H696   0.992       .  S
O694        H695   0.992       .  S
Fe697       O713   2.043       .  S
Fe697       O703   2.036       .  S
Fe697       O710   2.048       .  S
Fe697       O702   2.063       .  S
Fe697       O708   1.966       .  S
Fe698       O701   2.055       .  S
Fe698       O705   2.123       .  S
Fe698       O709   2.073       .  S
Fe698       O714   2.126       .  S
Fe698       O708   1.965       .  S
Fe699       O717   2.092       .  S
Fe699       O704   2.027       .  S
Fe699       O711   2.030       .  S
Fe699       O700   2.093       .  S
Fe699       O708   1.955       .  S
O700        C707   1.276       .  A
O701        C715   1.264       .  A
O702        C707   1.271       .  A
O703        C706   1.262       .  A
O704        C716   1.266       .  A
O705        C718   1.284       .  A
C706        O711   1.262       .  A
C706       C1336   1.460       .  S
C707       C1348   1.479       .  S
O709        C712   1.267       .  A
O710        C712   1.263       .  A
C712       C1360   1.472       .  S
O713        C718   1.268       .  A
O714        C716   1.284       .  A
C715        O717   1.271       .  A
C715       C1384   1.500       .  S
C716       C1369   1.479       .  S
C718       C1324   1.495       .  S
Fe719       O735   2.029       .  S
Fe719       O725   2.057       .  S
Fe719       O732   2.057       .  S
Fe719       O724   2.058       .  S
Fe719       O730   1.966       .  S
Fe720       O723   2.061       .  S
Fe720       O727   2.119       .  S
Fe720       O731   2.071       .  S
Fe720       O736   2.130       .  S
Fe720       O730   1.962       .  S
Fe721       O739   2.090       .  S
Fe721       O726   2.017       .  S
Fe721       O733   2.025       .  S
Fe721       O722   2.097       .  S
Fe721       O730   1.944       .  S
O722        C729   1.277       .  A
O723        C737   1.264       .  A
O724        C729   1.270       .  A
O725        C728   1.266       .  A
O726        C738   1.265       .  A
O727        C740   1.284       .  A
C728        O733   1.259       .  A
C728       C1276   1.464       .  S
C729       C1285   1.475       .  S
O731        C734   1.267       .  A
O732        C734   1.264       .  A
C734       C1357   1.473       .  S
O735        C740   1.268       .  A
O736        C738   1.284       .  A
C737        O739   1.271       .  A
C737       C1309   1.502       .  S
C738       C1300   1.480       .  S
C740       C1261   1.482       .  S
Fe741       O747   2.035       .  S
Fe741       O754   2.031       .  S
Fe741       O746   2.084       .  S
Fe741       O752   1.949       .  S
Fe742       O745   2.086       .  S
Fe742       O749   2.096       .  S
Fe742       O753   2.123       .  S
Fe742       O758   2.107       .  S
Fe742       O752   1.951       .  S
Fe743       O761   2.083       .  S
Fe743       O748   2.052       .  S
Fe743       O755   2.043       .  S
Fe743       O744   2.080       .  S
Fe743       O752   1.933       .  S
O744        C751   1.275       .  A
O745        C759   1.272       .  A
O746        C751   1.271       .  A
O747        C750   1.265       .  A
O748        C760   1.269       .  A
C750        O755   1.266       .  A
C750       C1249   1.454       .  S
C751       C1216   1.489       .  S
O753        C756   1.279       .  A
O754        C756   1.266       .  A
C756       C1225   1.481       .  S
O757        C762   1.268       .  A
O758        C760   1.281       .  A
C759        O761   1.273       .  A
C759       C1201   1.504       .  S
C760       C1345   1.479       .  S
C762       C1240   1.503       .  S
Fe763       O769   2.033       .  S
Fe763       O776   2.031       .  S
Fe763       O768   2.081       .  S
Fe763       O774   1.948       .  S
Fe764       O767   2.096       .  S
Fe764       O771   2.092       .  S
Fe764       O775   2.128       .  S
Fe764       O780   2.110       .  S
Fe764       O774   1.953       .  S
Fe765       O783   2.079       .  S
Fe765       O770   2.042       .  S
Fe765       O777   2.047       .  S
Fe765       O766   2.076       .  S
Fe765       O774   1.937       .  S
O766        C773   1.274       .  A
O767        C781   1.275       .  A
O768        C773   1.271       .  A
O769        C772   1.264       .  A
O770        C782   1.267       .  A
C772        O777   1.266       .  A
C772       C1177   1.462       .  S
C773       C1297   1.486       .  S
O775        C778   1.281       .  A
O776        C778   1.267       .  A
C778       C1228   1.494       .  S
O779        C784   1.268       .  A
O780        C782   1.281       .  A
C781        O783   1.273       .  A
C781       C1189   1.503       .  S
C782       C1156   1.476       .  S
C784       C1165   1.501       .  S
Fe785      O2193   2.037       .  S
Fe785       O791   2.045       .  S
Fe785       O798   2.053       .  S
Fe785       O790   2.065       .  S
Fe785       O796   1.970       .  S
Fe786       O789   2.055       .  S
Fe786       O793   2.124       .  S
Fe786       O797   2.075       .  S
Fe786       O802   2.133       .  S
Fe786       O796   1.961       .  S
Fe787       O805   2.096       .  S
Fe787       O792   2.022       .  S
Fe787       O799   2.025       .  S
Fe787       O788   2.096       .  S
Fe787       O796   1.948       .  S
O788        C795   1.276       .  A
O789        C803   1.263       .  A
O790        C795   1.272       .  A
O791        C794   1.263       .  A
O792        C804   1.267       .  A
O793       C2198   1.285       .  A
C794        O799   1.261       .  A
C794       C1129   1.457       .  S
C795       C1372   1.477       .  S
O797        C800   1.267       .  A
O798        C800   1.263       .  A
C800       C1108   1.475       .  S
O801      Fe2177   2.037   1_455  S
O801        C806   1.269       .  A
O802        C804   1.286       .  A
C803        O805   1.271       .  A
C803       C1141   1.504       .  S
C804       C1213   1.483       .  S
C806       O2185   1.285   1_455  A
C806       C1120   1.492       .  S
Fe807      O2215   2.040   1_455  S
Fe807       O813   2.039       .  S
Fe807       O820   2.049       .  S
Fe807       O812   2.065       .  S
Fe807       O818   1.968       .  S
Fe808       O811   2.054       .  S
Fe808       O815   2.117       .  S
Fe808       O819   2.074       .  S
Fe808       O824   2.120       .  S
Fe808       O818   1.968       .  S
Fe809       O827   2.100       .  S
Fe809       O814   2.026       .  S
Fe809       O821   2.026       .  S
Fe809       O810   2.110       .  S
Fe809       O818   1.954       .  S
O810        C817   1.280       .  A
O811        C825   1.262       .  A
O812        C817   1.272       .  A
O813        C816   1.260       .  A
O814        C826   1.267       .  A
O815       C2220   1.284   1_455  A
C816        O821   1.260       .  A
C816       C1096   1.462       .  S
C817       C1153   1.484       .  S
O819        C822   1.266       .  A
O820        C822   1.261       .  A
C822       C1105   1.474       .  S
O823      Fe2199   2.040       .  S
O823        C828   1.270       .  A
O824        C826   1.283       .  A
C825        O827   1.272       .  A
C825       C1069   1.506       .  S
C826       C1288   1.477       .  S
C828       O2207   1.284       .  A
C828       C1081   1.490       .  S
Fe829       O845   2.029       .  S
Fe829       O835   2.071       .  S
Fe829       O842   2.089       .  S
Fe829       O834   2.029       .  S
Fe829       O840   1.954       .  S
Fe830       O833   2.076       .  S
Fe830       O837   2.039       .  S
Fe830       O841   2.078       .  S
Fe830       O846   2.043       .  S
Fe830       O840   1.929       .  S
Fe831       O849   2.085       .  S
Fe831       O836   2.109       .  S
Fe831       O843   2.087       .  S
Fe831       O832   2.116       .  S
Fe831       O840   1.956       .  S
O832        C839   1.279       .  A
O833        C847   1.270       .  A
O834        C839   1.267       .  A
O835        C838   1.267       .  A
O836        C848   1.282       .  A
O837        C850   1.267       .  A
C838        O843   1.272       .  A
C838       C1204   1.501       .  S
C839       C1045   1.480       .  S
O841        C844   1.272       .  A
O842        C844   1.272       .  A
C844       C1033   1.487       .  S
O845        C850   1.262       .  A
O846        C848   1.269       .  A
C847        O849   1.272       .  A
C847       C1117   1.501       .  S
C848       C1057   1.479       .  S
C850       C1333   1.451       .  S
Fe851       O867   2.032       .  S
Fe851       O857   2.075       .  S
Fe851       O864   2.076       .  S
Fe851       O856   2.033       .  S
Fe851       O862   1.960       .  S
Fe852       O855   2.083       .  S
Fe852       O859   2.045       .  S
Fe852       O863   2.081       .  S
Fe852       O868   2.050       .  S
Fe852       O862   1.935       .  S
Fe853       O871   2.081       .  S
Fe853       O858   2.105       .  S
Fe853       O865   2.085       .  S
Fe853       O854   2.109       .  S
Fe853       O862   1.961       .  S
O854        C861   1.274       .  A
O855        C869   1.270       .  A
O856        C861   1.263       .  A
O857        C860   1.270       .  A
O858        C870   1.283       .  A
O859        C872   1.268       .  A
C860        O865   1.274       .  A
C860       C1072   1.502       .  S
C861       C1048   1.471       .  S
O863        C866   1.273       .  A
O864        C866   1.269       .  A
C866       C1009   1.488       .  S
O867        C872   1.264       .  A
O868        C870   1.271       .  A
C869        O871   1.269       .  A
C869       C1168   1.504   1_554  S
C870       C1021   1.475       .  S
C872       C1273   1.448       .  S
Fe873       O889   2.033       .  S
Fe873       O886   2.070       .  S
Fe873       O878   2.028       .  S
Fe873       O884   1.956       .  S
Fe874       O877   2.088       .  S
Fe874       O881   2.047       .  S
Fe874       O885   2.090       .  S
Fe874       O890   2.044       .  S
Fe874       O884   1.944       .  S
Fe875       O893   2.083       .  S
Fe875       O880   2.110       .  S
Fe875       O887   2.095       .  S
Fe875       O876   2.123       .  S
Fe875       O884   1.960       .  S
O876        C883   1.279       .  A
O877        C891   1.275       .  A
O878        C883   1.266       .  A
O879        C882   1.265       .  A
O880        C892   1.281       .  A
O881        C894   1.266       .  A
C882       C1144   1.502       .  S
C883        C997   1.483       .  S
O885        C888   1.275       .  A
O886        C888   1.269       .  A
C888        C985   1.491       .  S
O889        C894   1.266       .  A
O890        C892   1.268       .  A
C891        O893   1.271       .  A
C891       C1321   1.505       .  S
C892       C1036   1.478       .  S
C894       C1252   1.456       .  S
Fe895       O911   2.045       .  S
Fe895       O908   2.075       .  S
Fe895       O900   2.033       .  S
Fe895       O906   1.954       .  S
Fe896       O899   2.074       .  S
Fe896       O903   2.035       .  S
Fe896       O907   2.082       .  S
Fe896       O912   2.034       .  S
Fe896       O906   1.939       .  S
Fe897       O915   2.086       .  S
Fe897       O902   2.121       .  S
Fe897       O909   2.099       .  S
Fe897       O898   2.124       .  S
Fe897       O906   1.960       .  S
O898        C905   1.281       .  A
O899        C913   1.272       .  A
O900        C905   1.268       .  A
O901        C904   1.265       .  A
O902        C914   1.284       .  A
O903        C916   1.264       .  A
C904       C1312   1.501       .  S
C905       C1000   1.495       .  S
O907        C910   1.275       .  A
O908        C910   1.269       .  A
C910       C1024   1.489       .  S
O911        C916   1.266       .  A
O912        C914   1.265       .  A
C913        O915   1.272       .  A
C913       C1084   1.500       .  S
C914        C973   1.481       .  S
C916       C1180   1.461       .  S
Fe917       O933   2.025       .  S
Fe917      O2315   2.073       .  S
Fe917       O930   2.090       .  S
Fe917       O922   2.031       .  S
Fe917       O928   1.954       .  S
Fe918       O921   2.076       .  S
Fe918       O925   2.040       .  S
Fe918       O929   2.082       .  S
Fe918       O934   2.048       .  S
Fe918       O928   1.930       .  S
Fe919       O937   2.073       .  S
Fe919       O924   2.107       .  S
Fe919       O931   2.086       .  S
Fe919       O920   2.106       .  S
Fe919       O928   1.961       .  S
O920        C927   1.275       .  A
O921        C935   1.270       .  A
O922        C927   1.266       .  A
O923      Fe2309   2.073   1_455  S
O923        C926   1.270       .  A
O924        C936   1.283       .  A
O925        C938   1.267       .  A
C926       O2323   1.271   1_455  A
C926       C1192   1.504       .  S
C927        C964   1.470       .  S
O929        C932   1.274       .  A
O930        C932   1.272       .  A
O931       C2318   1.271       .  A
C932        C976   1.493       .  S
O933        C938   1.262       .  A
O934        C936   1.270       .  A
C935        O937   1.268       .  A
C935       C1264   1.497   1_554  S
C936       C1012   1.478       .  S
C938       C1093   1.446       .  S
Fe939       O955   2.028       .  S
Fe939      O2337   2.070   1_455  S
Fe939       O952   2.083       .  S
Fe939       O944   2.025       .  S
Fe939       O950   1.949       .  S
Fe940       O943   2.080       .  S
Fe940       O947   2.035       .  S
Fe940       O951   2.082       .  S
Fe940       O956   2.039       .  S
Fe940       O950   1.928       .  S
Fe941       O959   2.091       .  S
Fe941       O946   2.106       .  S
Fe941       O953   2.084       .  S
Fe941       O942   2.114       .  S
Fe941       O950   1.954       .  S
O942        C949   1.277       .  A
O943        C957   1.272       .  A
O944        C949   1.263       .  A
O945      Fe2331   2.070       .  S
O945        C948   1.268       .  A
O946        C958   1.283       .  A
O947        C960   1.266       .  A
C948       O2345   1.273       .  A
C948       C1381   1.498       .  S
C949        C961   1.481       .  S
O951        C954   1.275       .  A
O952        C954   1.271       .  A
O953       C2340   1.273   1_455  A
C954       C1060   1.493       .  S
O955        C960   1.262       .  A
O956        C958   1.268       .  A
C957        O959   1.272       .  A
C957       C1237   1.506       .  S
C958        C988   1.472       .  S
C960       C1132   1.456       .  S
C961        C962   1.407       .  A
C961        C966   1.414   1_455  A
C962        C963   1.407       .  A
C962        H967   1.083       .  S
C963       C2356   1.409   1_455  A
C963        O968   1.371       .  S
C964       C2355   1.409       .  A
C964        C965   1.397       .  A
C965       C2358   1.391       .  A
C965        H969   1.084       .  S
C966       C2357   1.391       .  A
C966        O970   1.373       .  S
O968        H972   0.992       .  S
O970       H2363   0.993       .  S
H971       O2362   0.993       .  S
C973        C974   1.405       .  A
C973        C978   1.413       .  A
C974        C975   1.410       .  A
C974        H979   1.084       .  S
C975        C976   1.415       .  A
C975        O980   1.371       .  S
C976        C977   1.402       .  A
C977        C978   1.404       .  A
C977        H981   1.083       .  S
C978        O982   1.373       .  S
O980        H984   0.992       .  S
O982        H983   0.992       .  S
C985        C986   1.411       .  A
C985        C990   1.407       .  A
C986        C987   1.404       .  A
C986        H991   1.084       .  S
C987        C988   1.404       .  A
C987        O992   1.371       .  S
C988        C989   1.408       .  A
C989        C990   1.404       .  A
C989        H993   1.084       .  S
C990        O994   1.371       .  S
O992        H996   0.992       .  S
O994        H995   0.992       .  S
C997       C1002   1.407       .  A
C998        C999   1.414       .  A
C998       H1003   1.083       .  S
C999       C1000   1.415       .  A
C999       O1004   1.370       .  S
C1001      C1002   1.391       .  A
C1001      H1005   1.083       .  S
C1002      O1006   1.373       .  S
O1004      H1008   0.992       .  S
O1006      H1007   0.992       .  S
C1009      C1010   1.401       .  A
C1009      C1014   1.414       .  A
C1010      C1011   1.402       .  A
C1010      H1015   1.081       .  S
C1011      C1012   1.412       .  A
C1011      O1016   1.373       .  S
C1012      C1013   1.402       .  A
C1013      C1014   1.407       .  A
C1013      H1017   1.084       .  S
C1014      O1018   1.371       .  S
O1016      H1020   0.992       .  S
O1018      H1019   0.992       .  S
C1021      C1022   1.401       .  A
C1021      C1026   1.411       .  A
C1022      C1023   1.406       .  A
C1022      H1027   1.084       .  S
C1023      C1024   1.417       .  A
C1023      O1028   1.371       .  S
C1024      C1025   1.401       .  A
C1025      C1026   1.402       .  A
C1025      H1029   1.083       .  S
C1026      O1030   1.371       .  S
O1028      H1032   0.992       .  S
O1030      H1031   0.992       .  S
C1033      C1034   1.403       .  A
C1033      C1038   1.413       .  A
C1034      C1035   1.406       .  A
C1034      H1039   1.084       .  S
C1035      C1036   1.411       .  A
C1035      O1040   1.371       .  S
C1036      C1037   1.404       .  A
C1037      C1038   1.406       .  A
C1037      H1041   1.084       .  S
C1038      O1042   1.372       .  S
O1040      H1044   0.990       .  S
O1042      H1043   0.991       .  S
C1045      C1046   1.405       .  A
C1045      C1050   1.410       .  A
C1046      C1047   1.391       .  A
C1046      H1051   1.084       .  S
C1047      C1048   1.403       .  A
C1047      O1052   1.372       .  S
C1048      C1049   1.407       .  A
C1049      C1050   1.409       .  A
C1049      H1053   1.083       .  S
C1050      O1054   1.371       .  S
O1052      H1056   0.992       .  S
O1054      H1055   0.992       .  S
C1057      C1058   1.402       .  A
C1057      C1062   1.412       .  A
C1058      C1059   1.408       .  A
C1058      H1063   1.084       .  S
C1059      C1060   1.418       .  A
C1059      O1064   1.371       .  S
C1060      C1061   1.403       .  A
C1061      C1062   1.400       .  A
C1061      H1065   1.084       .  S
C1062      O1066   1.372       .  S
O1064      H1068   0.993       .  S
O1066      H1067   0.991       .  S
C1069      C1070   1.407   1_556  A
C1069      C1074   1.419       .  A
C1070      C1071   1.409       .  A
C1070      H1075   1.083       .  S
C1071      C1072   1.418       .  A
C1071      O1076   1.371       .  S
C1072      C1073   1.405       .  A
C1073      C1074   1.404   1_554  A
C1073      H1077   1.083       .  S
C1074      O1078   1.371       .  S
O1076      H1080   0.992       .  S
O1078      H1079   0.992       .  S
C1081      C1082   1.406       .  A
C1081      C1086   1.413       .  A
C1082      C1083   1.409       .  A
C1082      H2479   1.084       .  S
C1083      C1084   1.418   1_556  A
C1083      O1088   1.371   1_556  S
C1084      C1085   1.406   1_554  A
C1085      C1086   1.399       .  A
C1085      H1089   1.083       .  S
C1086      O1090   1.372       .  S
H1087      C2474   1.083   1_455  S
O1088      H1092   0.992       .  S
O1090      H1091   0.992       .  S
C1093      C1094   1.397   1_554  A
C1093      C2490   1.404       .  A
C1094      C1095   1.385       .  A
C1094      H1099   1.084       .  S
C1095      C2488   1.413       .  A
C1095      O1100   1.372       .  S
C1096      C2487   1.413       .  A
C1096      C1097   1.404       .  A
C1097      C1098   1.387   1_556  A
C1097      H1101   1.083   1_556  S
C1098      C2485   1.404       .  A
C1098      O1102   1.372       .  S
O1100      H1104   0.992       .  S
O1102      H1103   0.992       .  S
C1105      C1106   1.406   1_455  A
C1105      C2502   1.406       .  A
C1106      C1107   1.402       .  A
C1106      H1111   1.084       .  S
C1107      C2500   1.406       .  A
C1107      O1112   1.372       .  S
C1108      C2499   1.406       .  A
C1108      C1109   1.406       .  A
C1109      C1110   1.401       .  A
C1109      H1113   1.084       .  S
C1110      C2497   1.406       .  A
C1110      O1114   1.372       .  S
O1112      H1116   0.992       .  S
O1114      H1115   0.992       .  S
C1117      C1118   1.412       .  A
C1117      C1122   1.414       .  A
C1118      C1119   1.408       .  A
C1118      H1123   1.083       .  S
C1119      C1120   1.409       .  A
C1119      O1124   1.371       .  S
C1120      C1121   1.408       .  A
C1121      C1122   1.403       .  A
C1121      H1125   1.084       .  S
C1122      O1126   1.371       .  S
O1124      H1128   0.993       .  S
O1126      H1127   0.991       .  S
C1129      C1130   1.403       .  A
C1129      C2526   1.408       .  A
C1130      C2523   1.387       .  A
C1130      H1135   1.084       .  S
C1131      C2522   1.387       .  A
C1131      C1132   1.407   1_655  A
C1131      O2528   1.372       .  S
C1132      C1133   1.402       .  A
C1133      C1134   1.385       .  A
C1133      H1137   1.084       .  S
C1134      C2521   1.408   1_455  A
C1134      O1138   1.372       .  S
O1136      C2523   1.372       .  S
O1136      H1140   0.993       .  S
O1138      H1139   0.992       .  S
C1141      C1142   1.412       .  A
C1141      C1146   1.412       .  A
C1142      C1143   1.406       .  A
C1142      H1147   1.083       .  S
C1143      C1144   1.411       .  A
C1143      O1148   1.371       .  S
C1144      C1145   1.412       .  A
C1145      C1146   1.407       .  A
C1145      H1149   1.083       .  S
C1146      O1150   1.371       .  S
O1148      H1152   0.992       .  S
O1150      H1151   0.992       .  S
C1153      C1154   1.406       .  A
C1153      C1158   1.405       .  A
C1154      C1155   1.406       .  A
C1154      H1159   1.084       .  S
C1155      C1156   1.407       .  A
C1155      O1160   1.372       .  S
C1156      C1157   1.409       .  A
C1157      C1158   1.405       .  A
C1157      H1161   1.084       .  S
C1158      O1162   1.369       .  S
O1160      H1164   0.991       .  S
O1162      H1163   0.992       .  S
C1165      C1166   1.410       .  A
C1165      C1170   1.413       .  A
C1166      C1167   1.406       .  A
C1166      H1171   1.083       .  S
C1167      C1168   1.413       .  A
C1167      O1172   1.371       .  S
C1168      C1169   1.411   1_556  A
C1169      C1170   1.408   1_554  A
C1169      H1173   1.083       .  S
C1170      O1174   1.372       .  S
O1172      H1176   0.992       .  S
O1174      H1175   0.992       .  S
C1177      C1178   1.407       .  A
C1177      C1182   1.406   1_565  A
C1178      H1183   1.084       .  S
C1179      C1180   1.404       .  A
C1179      O1184   1.372       .  S
C1181      C1182   1.388   1_554  A
C1182      O1186   1.373       .  S
O1184      H1188   0.993   1_554  S
O1186      H1187   0.991       .  S
C1189      C1190   1.409       .  A
C1189      C1194   1.413   1_556  A
C1190      C1191   1.408   1_556  A
C1190      H1195   1.083       .  S
C1191      C1192   1.415       .  A
C1191      O1196   1.371       .  S
C1192      C1193   1.410       .  A
C1193      C1194   1.407       .  A
C1193      H1197   1.083       .  S
C1194      O1198   1.371       .  S
O1196      H1200   0.993       .  S
O1198      H1199   0.991       .  S
C1201      C1202   1.408       .  A
C1201      C1206   1.417       .  A
C1202      C1203   1.409       .  A
C1202      H1207   1.083       .  S
C1203      C1204   1.416       .  A
C1203      O1208   1.372       .  S
C1204      C1205   1.406       .  A
C1205      C1206   1.405       .  A
C1205      H1209   1.083       .  S
C1206      O1210   1.371       .  S
O1208      H1212   0.994       .  S
O1210      H1211   0.992       .  S
C1213      C1214   1.404       .  A
C1213      C1218   1.413       .  A
C1214      C1215   1.408       .  A
C1214      H1219   1.084       .  S
C1215      C1216   1.415       .  A
C1215      O1220   1.371       .  S
C1216      C1217   1.400       .  A
C1217      C1218   1.401       .  A
C1217      H1221   1.081       .  S
C1218      O1222   1.373       .  S
O1220      H1224   0.992       .  S
O1222      H1223   0.993       .  S
C1225      C1230   1.405       .  A
C1226      C1227   1.414       .  A
C1226      H1231   1.083       .  S
C1227      C1228   1.414       .  A
C1227      O1232   1.370       .  S
C1228      C1229   1.408   1_565  A
C1229      H1233   1.084       .  S
C1230      O1234   1.374       .  S
O1232      H1236   0.992       .  S
O1234      H1235   0.993       .  S
C1237      C1238   1.407       .  A
C1237      C1242   1.418       .  A
C1238      C1239   1.405       .  A
C1238      H1243   1.083       .  S
C1239      C1240   1.415       .  A
C1239      O1244   1.371       .  S
C1240      C1241   1.408       .  A
C1241      C1242   1.411       .  A
C1241      H1245   1.084       .  S
C1242      O1246   1.372       .  S
O1244      H1248   0.992       .  S
O1246      H1247   0.992       .  S
C1249      C1254   1.405       .  A
C1250      C1251   1.390       .  A
C1250      H1255   1.084       .  S
C1251      C1252   1.407       .  A
C1251      O1256   1.373       .  S
C1252      C1253   1.402   1_565  A
C1253      H1257   1.084       .  S
C1254      O1258   1.373       .  S
O1256      H1260   0.992       .  S
O1258      H1259   0.992       .  S
C1261      C1262   1.406       .  A
C1261      C1266   1.407       .  A
C1262      C1263   1.402       .  A
C1262      H1267   1.084       .  S
C1263      C1264   1.413       .  A
C1263      O1268   1.371       .  S
C1264      C1265   1.412       .  A
C1265      C1266   1.405       .  A
C1265      H1269   1.083   1_556  S
C1266      O1270   1.371       .  S
O1268      H1272   0.992       .  S
O1270      H1271   0.993       .  S
C1273      C1274   1.400       .  A
C1273      C1278   1.400   1_554  A
C1274      C1275   1.392       .  A
C1274      H1279   1.084       .  S
C1275      C1276   1.411   1_554  A
C1275      O1280   1.372       .  S
C1276      C1277   1.404       .  A
C1277      C1278   1.387       .  A
C1277      H1281   1.081       .  S
C1278      O1282   1.373       .  S
O1280      H1284   0.992       .  S
O1282      H1283   0.992       .  S
C1285      C1286   1.397       .  A
C1285      C1290   1.411       .  A
C1286      C1287   1.402       .  A
C1286      H1291   1.084       .  S
C1287      C1288   1.413       .  A
C1287      O1292   1.371       .  S
C1288      C1289   1.401       .  A
C1289      C1290   1.405       .  A
C1289      H1293   1.084       .  S
C1290      O1294   1.370       .  S
O1292      H1296   0.992       .  S
O1294      H1295   0.991       .  S
C1297      C1298   1.411       .  A
C1297      C1302   1.406       .  A
C1298      C1299   1.406       .  A
C1298      H1303   1.084       .  S
C1299      C1300   1.406       .  A
C1299      O1304   1.371       .  S
C1300      C1301   1.409       .  A
C1301      C1302   1.401       .  A
C1301      H1305   1.084       .  S
C1302      O1306   1.373       .  S
O1304      H1308   0.992       .  S
O1306      H1307   0.992       .  S
C1309      C1310   1.412       .  A
C1309      C1314   1.412   1_556  A
C1310      C1311   1.408   1_556  A
C1310      H1315   1.083       .  S
C1311      C1312   1.412       .  A
C1311      O1316   1.371       .  S
C1312      C1313   1.411       .  A
C1313      C1314   1.404       .  A
C1313      H1317   1.083       .  S
C1314      O1318   1.372       .  S
O1316      H1320   0.992       .  S
O1318      H1319   0.991       .  S
C1321      C1322   1.407       .  A
C1321      C1326   1.420       .  A
C1322      C1323   1.404       .  A
C1322      H1327   1.083       .  S
C1323      C1324   1.414       .  A
C1323      O1328   1.372       .  S
C1324      C1325   1.404       .  A
C1325      C1326   1.409       .  A
C1325      H1329   1.084       .  S
C1326      O1330   1.371       .  S
O1328      H1332   0.990       .  S
O1330      H1331   0.994       .  S
C1333      C1334   1.398       .  A
C1333      C1338   1.406       .  A
C1334      C1335   1.382       .  A
C1334      H1339   1.084       .  S
C1335      C1336   1.411       .  A
C1335      O1340   1.372       .  S
C1336      C1337   1.404       .  A
C1337      C1338   1.391       .  A
C1337      H1341   1.084       .  S
C1338      O1342   1.372       .  S
O1340      H1344   0.993       .  S
O1342      H1343   0.991       .  S
C1345      C1346   1.402       .  A
C1345      C1350   1.413       .  A
C1346      C1347   1.406       .  A
C1346      H1351   1.084       .  S
C1347      C1348   1.413       .  A
C1347      O1352   1.371       .  S
C1348      C1349   1.399       .  A
C1349      C1350   1.403       .  A
C1349      H1353   1.084       .  S
C1350      O1354   1.371       .  S
O1352      H1356   0.992       .  S
O1354      H1355   0.991       .  S
C1357      C1358   1.406       .  A
C1357      C1362   1.406       .  A
C1358      C1359   1.401       .  A
C1358      H1363   1.084       .  S
C1359      C1360   1.406       .  A
C1359      O1364   1.372       .  S
C1360      C1361   1.405       .  A
C1361      C1362   1.399       .  A
C1361      H1365   1.084       .  S
C1362      O1366   1.371       .  S
O1364      H1368   0.993       .  S
O1366      H1367   0.992       .  S
C1369      C1370   1.409       .  A
C1369      C1374   1.407       .  A
C1370      C1371   1.402       .  A
C1370      H1375   1.084       .  S
C1371      C1372   1.403       .  A
C1371      O1376   1.370       .  S
C1372      C1373   1.407       .  A
C1373      C1374   1.406       .  A
C1373      H1377   1.084       .  S
C1374      O1378   1.373       .  S
O1376      H1380   0.987       .  S
O1378      H1379   0.986       .  S
C1381      C1382   1.411       .  A
C1381      C1386   1.412       .  A
C1382      C1383   1.406       .  A
C1382      H1387   1.083       .  S
C1383      C1384   1.412       .  A
C1383      O1388   1.371       .  S
C1384      C1385   1.410       .  A
C1385      C1386   1.403       .  A
C1385      H1389   1.083       .  S
C1386      O1390   1.371       .  S
O1388      H1392   0.992       .  S
O1390      H1391   0.992       .  S
Fe1393     O1409   2.043       .  S
Fe1393     O1399   2.036       .  S
Fe1393     O1406   2.048       .  S
Fe1393     O1398   2.063       .  S
Fe1393     O1404   1.966       .  S
Fe1394     O1397   2.055       .  S
Fe1394     O1401   2.123       .  S
Fe1394     O1405   2.073       .  S
Fe1394     O1410   2.126       .  S
Fe1394     O1404   1.965       .  S
Fe1395     O1413   2.092       .  S
Fe1395     O1400   2.027       .  S
Fe1395     O1407   2.030       .  S
Fe1395     O1396   2.093       .  S
Fe1395     O1404   1.955       .  S
O1396      C1403   1.276       .  A
O1397      C1411   1.264       .  A
O1398      C1403   1.271       .  A
O1399      C1402   1.262       .  A
O1400      C1412   1.266       .  A
O1401      C1414   1.284       .  A
C1402      O1407   1.262       .  A
C1402      C2032   1.460       .  S
C1403      C2044   1.479       .  S
O1405      C1408   1.267       .  A
O1406      C1408   1.262       .  A
C1408      C2056   1.472       .  S
O1409      C1414   1.268       .  A
O1410      C1412   1.284       .  A
C1411      O1413   1.271       .  A
C1411      C2080   1.500       .  S
C1412      C2065   1.479       .  S
C1414      C2020   1.495       .  S
Fe1415     O1431   2.029       .  S
Fe1415     O1421   2.057       .  S
Fe1415     O1428   2.057       .  S
Fe1415     O1420   2.058       .  S
Fe1415     O1426   1.966       .  S
Fe1416     O1419   2.061       .  S
Fe1416     O1423   2.119       .  S
Fe1416     O1427   2.071       .  S
Fe1416     O1432   2.130       .  S
Fe1416     O1426   1.962       .  S
Fe1417     O1435   2.090       .  S
Fe1417     O1422   2.017       .  S
Fe1417     O1429   2.025       .  S
Fe1417     O1418   2.097       .  S
Fe1417     O1426   1.944       .  S
O1418      C1425   1.277       .  A
O1419      C1433   1.264       .  A
O1420      C1425   1.270       .  A
O1421      C1424   1.266       .  A
O1422      C1434   1.265       .  A
O1423      C1436   1.284       .  A
C1424      O1429   1.259       .  A
C1424      C1972   1.464       .  S
C1425      C1981   1.475       .  S
O1427      C1430   1.267       .  A
O1428      C1430   1.264       .  A
C1430      C2053   1.473       .  S
O1431      C1436   1.268       .  A
O1432      C1434   1.284       .  A
C1433      O1435   1.271       .  A
C1433      C2005   1.502       .  S
C1434      C1996   1.480       .  S
C1436      C1957   1.482       .  S
Fe1437     O2149   2.072   1_545  S
Fe1437     O1443   2.035       .  S
Fe1437     O1450   2.031       .  S
Fe1437     O1442   2.084       .  S
Fe1437     O1448   1.949       .  S
Fe1438     O1441   2.086       .  S
Fe1438     O1445   2.096       .  S
Fe1438     O1449   2.123       .  S
Fe1438     O1454   2.107       .  S
Fe1438     O1448   1.951       .  S
Fe1439     O1457   2.083       .  S
Fe1439     O1444   2.052       .  S
Fe1439     O1451   2.043       .  S
Fe1439     O1440   2.080       .  S
Fe1439     O1448   1.933       .  S
O1440      C1447   1.275       .  A
O1441      C1455   1.272       .  A
O1442      C1447   1.271       .  A
O1443      C1446   1.265       .  A
O1444      C1456   1.269       .  A
O1445      C2154   1.273   1_545  A
C1446      O1451   1.266       .  A
C1446      C1945   1.454       .  S
C1447      C1912   1.489       .  S
O1449      C1452   1.279       .  A
O1450      C1452   1.266       .  A
C1452      C1921   1.481       .  S
O1453     Fe2133   2.072       .  S
O1453      C1458   1.268       .  A
O1454      C1456   1.281       .  A
C1455      O1457   1.272       .  A
C1455      C1897   1.504       .  S
C1456      C2041   1.479       .  S
C1458      O2141   1.273       .  A
C1458      C1936   1.503       .  S
Fe1459     O2171   2.072       .  S
Fe1459     O1465   2.033       .  S
Fe1459     O1472   2.031       .  S
Fe1459     O1464   2.081       .  S
Fe1459     O1470   1.948       .  S
Fe1460     O1463   2.096       .  S
Fe1460     O1467   2.092       .  S
Fe1460     O1471   2.128       .  S
Fe1460     O1476   2.110       .  S
Fe1460     O1470   1.953       .  S
Fe1461     O1479   2.079       .  S
Fe1461     O1466   2.042       .  S
Fe1461     O1473   2.047       .  S
Fe1461     O1462   2.076       .  S
Fe1461     O1470   1.937       .  S
O1462      C1469   1.274       .  A
O1463      C1477   1.275       .  A
O1464      C1469   1.271       .  A
O1465      C1468   1.264       .  A
O1466      C1478   1.267       .  A
O1467      C2176   1.273       .  A
C1468      O1473   1.266       .  A
C1468      C1873   1.462       .  S
C1469      C1993   1.486       .  S
O1471      C1474   1.281       .  A
O1472      C1474   1.267       .  A
C1474      C1924   1.494       .  S
O1475     Fe2155   2.072   1_545  S
O1475      C1480   1.268       .  A
O1476      C1478   1.281       .  A
C1477      O1479   1.273       .  A
C1477      C1885   1.503       .  S
C1478      C1852   1.476       .  S
C1480      O2163   1.273   1_545  A
C1480      C1861   1.501       .  S
Fe1481     O1487   2.045       .  S
Fe1481     O1494   2.053   1_655  S
Fe1481     O1486   2.065       .  S
Fe1481     O1492   1.970       .  S
Fe1482     O1485   2.055       .  S
Fe1482     O1489   2.124       .  S
Fe1482     O1493   2.075       .  S
Fe1482     O1498   2.133       .  S
Fe1482     O1492   1.961       .  S
Fe1483     O1501   2.096       .  S
Fe1483     O1488   2.022       .  S
Fe1483     O1495   2.025       .  S
Fe1483     O1484   2.096       .  S
Fe1483     O1492   1.948       .  S
O1484      C1491   1.276       .  A
O1485      C1499   1.263       .  A
O1486      C1491   1.272       .  A
O1487      C1490   1.263       .  A
O1488      C1500   1.267       .  A
C1490      O1495   1.261       .  A
C1490      C1825   1.457       .  S
C1491      C2068   1.477       .  S
O1493      C1496   1.267       .  A
O1494      C1496   1.263   1_455  A
C1496      C1804   1.475       .  S
O1497      C1502   1.269       .  A
O1498      C1500   1.286       .  A
C1499      O1501   1.271       .  A
C1499      C1837   1.504       .  S
C1500      C1909   1.483       .  S
C1502      C1816   1.492       .  S
Fe1503     O1509   2.039       .  S
Fe1503     O1516   2.049       .  S
Fe1503     O1508   2.065       .  S
Fe1503     O1514   1.968       .  S
Fe1504     O1507   2.054       .  S
Fe1504     O1511   2.117       .  S
Fe1504     O1515   2.074       .  S
Fe1504     O1520   2.120       .  S
Fe1504     O1514   1.968       .  S
Fe1505     O1523   2.100       .  S
Fe1505     O1510   2.026       .  S
Fe1505     O1517   2.026       .  S
Fe1505     O1506   2.110       .  S
Fe1505     O1514   1.954       .  S
O1506      C1513   1.280       .  A
O1507      C1521   1.262       .  A
O1508      C1513   1.272       .  A
O1509      C1512   1.260       .  A
O1510      C1522   1.267       .  A
C1512      O1517   1.260       .  A
C1512      C1792   1.461       .  S
C1513      C1849   1.484       .  S
O1515      C1518   1.266       .  A
O1516      C1518   1.261       .  A
C1518      C1801   1.474       .  S
O1519      C1524   1.270       .  A
O1520      C1522   1.283       .  A
C1521      O1523   1.272       .  A
C1521      C1765   1.506       .  S
C1522      C1984   1.477       .  S
C1524      C1777   1.490       .  S
Fe1525     O1541   2.029       .  S
Fe1525     O1531   2.071       .  S
Fe1525     O1538   2.089       .  S
Fe1525     O1530   2.029       .  S
Fe1525     O1536   1.954       .  S
Fe1526     O1529   2.076       .  S
Fe1526     O1533   2.039       .  S
Fe1526     O1537   2.078       .  S
Fe1526     O1542   2.043       .  S
Fe1526     O1536   1.929       .  S
Fe1527     O1545   2.085       .  S
Fe1527     O1532   2.109       .  S
Fe1527     O1539   2.088       .  S
Fe1527     O1528   2.116       .  S
Fe1527     O1536   1.956       .  S
O1528      C1535   1.279       .  A
O1529      C1543   1.270       .  A
O1530      C1535   1.267       .  A
O1531      C1534   1.267       .  A
O1532      C1544   1.283       .  A
O1533      C1546   1.267       .  A
C1534      O1539   1.272       .  A
C1534      C1900   1.501       .  S
C1535      C1741   1.480       .  S
O1537      C1540   1.272       .  A
O1538      C1540   1.272       .  A
C1540      C1729   1.487       .  S
O1541      C1546   1.262       .  A
O1542      C1544   1.269       .  A
C1543      O1545   1.272       .  A
C1543      C1813   1.501       .  S
C1544      C1753   1.479       .  S
C1546      C2029   1.451       .  S
Fe1547     O1563   2.032       .  S
Fe1547     O1553   2.075       .  S
Fe1547     O1560   2.076       .  S
Fe1547     O1552   2.033       .  S
Fe1547     O1558   1.959       .  S
Fe1548     O1551   2.083       .  S
Fe1548     O1555   2.045       .  S
Fe1548     O1559   2.081       .  S
Fe1548     O1564   2.050       .  S
Fe1548     O1558   1.935       .  S
Fe1549     O1567   2.081       .  S
Fe1549     O1554   2.105       .  S
Fe1549     O1561   2.085       .  S
Fe1549     O1550   2.109       .  S
Fe1549     O1558   1.961       .  S
O1550      C1557   1.274       .  A
O1551      C1565   1.270       .  A
O1552      C1557   1.263       .  A
O1553      C1556   1.270       .  A
O1554      C1566   1.283       .  A
O1555      C1568   1.268       .  A
C1556      O1561   1.274       .  A
C1556      C1768   1.502       .  S
C1557      C1744   1.471       .  S
O1559      C1562   1.273       .  A
O1560      C1562   1.269       .  A
C1562      C1705   1.488       .  S
O1563      C1568   1.264       .  A
O1564      C1566   1.271       .  A
C1565      O1567   1.269       .  A
C1565      C1864   1.504   1_554  S
C1566      C1717   1.475       .  S
C1568      C1969   1.448       .  S
Fe1569     O1585   2.033       .  S
Fe1569     O2271   2.064       .  S
Fe1569     O1582   2.070       .  S
Fe1569     O1574   2.028       .  S
Fe1569     O1580   1.956       .  S
Fe1570     O1573   2.088       .  S
Fe1570     O1577   2.047       .  S
Fe1570     O1581   2.090       .  S
Fe1570     O1586   2.045       .  S
Fe1570     O1580   1.944       .  S
Fe1571     O1589   2.083       .  S
Fe1571     O1576   2.110       .  S
Fe1571     O1583   2.095       .  S
Fe1571     O1572   2.122       .  S
Fe1571     O1580   1.960       .  S
O1572      C1579   1.279       .  A
O1573      C1587   1.275       .  A
O1574      C1579   1.266       .  A
O1575     Fe2265   2.064   1_545  S
O1575      C1578   1.265       .  A
O1576      C1588   1.281       .  A
O1577      C1590   1.266       .  A
C1578      O2279   1.272   1_545  A
C1578      C1840   1.502       .  S
C1579      C1693   1.483       .  S
O1581      C1584   1.275       .  A
O1582      C1584   1.269       .  A
O1583      C2274   1.272       .  A
C1584      C1681   1.491       .  S
O1585      C1590   1.266       .  A
O1586      C1588   1.268       .  A
C1587      O1589   1.271       .  A
C1587      C2017   1.505       .  S
C1588      C1732   1.478       .  S
C1590      C1948   1.457       .  S
Fe1591     O1607   2.045       .  S
Fe1591     O2293   2.063   1_545  S
Fe1591     O1604   2.075       .  S
Fe1591     O1596   2.033       .  S
Fe1591     O1602   1.954       .  S
Fe1592     O1595   2.074       .  S
Fe1592     O1599   2.035       .  S
Fe1592     O1603   2.082       .  S
Fe1592     O1608   2.034       .  S
Fe1592     O1602   1.939       .  S
Fe1593     O1611   2.086       .  S
Fe1593     O1598   2.121       .  S
Fe1593     O1605   2.099       .  S
Fe1593     O1594   2.124       .  S
Fe1593     O1602   1.960       .  S
O1594      C1601   1.281       .  A
O1595      C1609   1.272       .  A
O1596      C1601   1.268       .  A
O1597     Fe2287   2.063       .  S
O1597      C1600   1.265       .  A
O1598      C1610   1.284       .  A
O1599      C1612   1.264       .  A
C1600      O2301   1.273       .  A
C1600      C2008   1.501       .  S
C1601      C1696   1.495       .  S
O1603      C1606   1.275       .  A
O1604      C1606   1.269       .  A
O1605      C2296   1.273   1_545  A
C1606      C1720   1.489       .  S
O1607      C1612   1.266       .  A
O1608      C1610   1.265       .  A
C1609      O1611   1.272       .  A
C1609      C1780   1.500       .  S
C1610      C1669   1.481       .  S
C1612      C1876   1.461       .  S
Fe1613     O1629   2.025   1_655  S
Fe1613     O1626   2.090       .  S
Fe1613     O1618   2.031       .  S
Fe1613     O1624   1.954       .  S
Fe1614     O1617   2.076       .  S
Fe1614     O1621   2.039       .  S
Fe1614     O1625   2.082       .  S
Fe1614     O1630   2.048       .  S
Fe1614     O1624   1.929       .  S
Fe1615     O1633   2.073       .  S
Fe1615     O1620   2.107       .  S
Fe1615     O1627   2.086       .  S
Fe1615     O1616   2.106       .  S
Fe1615     O1624   1.961       .  S
O1616      C1623   1.275       .  A
O1617      C1631   1.270       .  A
O1618      C1623   1.266       .  A
O1619      C1622   1.270       .  A
O1620      C1632   1.283       .  A
O1621      C1634   1.267       .  A
C1622      C1888   1.504       .  S
C1623      C1660   1.469       .  S
O1625      C1628   1.274       .  A
O1626      C1628   1.272       .  A
C1628      C1672   1.493       .  S
O1629      C1634   1.262   1_455  A
O1630      C1632   1.270       .  A
C1631      O1633   1.268       .  A
C1631      C1960   1.497   1_554  S
C1632      C1708   1.478       .  S
C1634      C1789   1.446   1_655  S
Fe1635     O1651   2.028       .  S
Fe1635     O1648   2.083       .  S
Fe1635     O1640   2.025       .  S
Fe1635     O1646   1.949       .  S
Fe1636     O1639   2.080       .  S
Fe1636     O1643   2.035       .  S
Fe1636     O1647   2.082       .  S
Fe1636     O1652   2.039       .  S
Fe1636     O1646   1.928       .  S
Fe1637     O1655   2.091       .  S
Fe1637     O1642   2.106       .  S
Fe1637     O1649   2.084       .  S
Fe1637     O1638   2.114       .  S
Fe1637     O1646   1.954       .  S
O1638      C1645   1.277       .  A
O1639      C1653   1.272       .  A
O1640      C1645   1.263       .  A
O1641      C1644   1.269       .  A
O1642      C1654   1.283       .  A
O1643      C1656   1.266       .  A
C1644      C2077   1.498       .  S
C1645      C1657   1.481       .  S
O1647      C1650   1.275       .  A
O1648      C1650   1.271       .  A
C1650      C1756   1.493       .  S
O1651      C1656   1.262       .  A
O1652      C1654   1.268       .  A
C1653      O1655   1.272       .  A
C1653      C1933   1.506       .  S
C1654      C1684   1.472       .  S
C1656      C1828   1.456       .  S
C1657      C1658   1.407       .  A
C1657      C1662   1.414       .  A
C1658      C1659   1.407       .  A
C1658      H1663   1.083       .  S
C1659      O1664   1.371       .  S
C1660      C1661   1.397       .  A
C1661      H1665   1.084       .  S
C1662      O1666   1.373       .  S
O1664      H1668   0.992       .  S
C1669      C1670   1.405       .  A
C1669      C1674   1.413       .  A
C1670      C1671   1.410       .  A
C1670      H1675   1.084       .  S
C1671      C1672   1.415       .  A
C1671      O1676   1.371       .  S
C1672      C1673   1.402       .  A
C1673      C1674   1.404       .  A
C1673      H1677   1.083       .  S
C1674      O1678   1.373       .  S
O1676      H1680   0.992   1_655  S
O1678      H1679   0.992       .  S
C1681      C1682   1.411       .  A
C1681      C1686   1.407       .  A
C1682      C1683   1.404       .  A
C1682      H1687   1.084       .  S
C1683      C1684   1.404       .  A
C1683      O1688   1.371       .  S
C1684      C1685   1.408       .  A
C1685      C1686   1.404       .  A
C1685      H1689   1.084       .  S
C1686      O1690   1.371       .  S
O1688      H1692   0.992       .  S
O1690      H1691   0.992       .  S
C1693      C2390   1.407       .  A
C1693      C1698   1.407       .  A
C1694      C2389   1.407       .  A
C1694      C1695   1.414   1_565  A
C1694      H1699   1.083   1_565  S
C1695      C1696   1.415       .  A
C1695      O1700   1.370       .  S
C1696      C2393   1.408   1_545  A
C1697      C2392   1.408       .  A
C1697      C1698   1.391       .  A
C1697      H1701   1.083       .  S
C1698      O1702   1.373       .  S
O1700      H1704   0.992       .  S
O1702      H1703   0.992       .  S
C1705      C1706   1.401       .  A
C1705      C1710   1.414       .  A
C1706      C1707   1.402       .  A
C1706      H1711   1.081       .  S
C1707      C1708   1.412       .  A
C1707      O1712   1.373       .  S
C1708      C1709   1.402       .  A
C1709      C1710   1.407       .  A
C1709      H1713   1.084       .  S
C1710      O1714   1.371       .  S
O1712      H1716   0.992       .  S
O1714      H1715   0.992       .  S
C1717      C1718   1.401       .  A
C1717      C1722   1.411       .  A
C1718      C1719   1.406       .  A
C1718      H1723   1.084       .  S
C1719      C1720   1.417       .  A
C1719      O1724   1.371       .  S
C1720      C1721   1.401       .  A
C1721      C1722   1.402       .  A
C1721      H1725   1.083       .  S
C1722      O1726   1.371       .  S
O1724      H1728   0.992   1_545  S
O1726      H1727   0.992       .  S
C1729      C1730   1.403       .  A
C1729      C1734   1.413       .  A
C1730      C1731   1.406       .  A
C1730      H1735   1.084       .  S
C1731      C1732   1.411       .  A
C1731      O1736   1.371       .  S
C1732      C1733   1.404       .  A
C1733      C1734   1.406       .  A
C1733      H1737   1.084       .  S
C1734      O1738   1.372       .  S
O1736      H1740   0.990       .  S
O1738      H1739   0.991       .  S
C1741      C1742   1.405       .  A
C1741      C1746   1.410       .  A
C1742      C1743   1.391       .  A
C1742      H1747   1.084       .  S
C1743      C1744   1.403       .  A
C1743      O1748   1.372       .  S
C1744      C1745   1.407       .  A
C1745      C1746   1.409       .  A
C1745      H1749   1.083       .  S
C1746      O1750   1.371       .  S
O1748      H1752   0.992       .  S
O1750      H1751   0.992       .  S
C1753      C1754   1.402       .  A
C1753      C1758   1.412       .  A
C1754      C1755   1.409       .  A
C1754      H1759   1.084       .  S
C1755      C1756   1.418       .  A
C1755      O1760   1.371       .  S
C1756      C1757   1.403       .  A
C1757      C1758   1.400       .  A
C1757      H1761   1.084       .  S
C1758      O1762   1.372       .  S
O1760      H1764   0.993       .  S
O1762      H1763   0.991       .  S
C1765      C1766   1.407   1_556  A
C1765      C1770   1.419       .  A
C1766      C1767   1.409       .  A
C1766      H1771   1.083       .  S
C1767      C1768   1.418       .  A
C1767      O1772   1.371       .  S
C1768      C1769   1.405       .  A
C1769      C1770   1.404   1_554  A
C1769      H1773   1.083       .  S
C1770      O1774   1.371       .  S
O1772      H1776   0.992       .  S
O1774      H1775   0.992       .  S
C1777      C1778   1.406       .  A
C1777      C1782   1.413       .  A
C1778      C1779   1.409       .  A
C1779      C1780   1.418   1_556  A
C1779      O1784   1.371   1_556  S
C1780      C1781   1.406   1_554  A
C1781      C1782   1.399       .  A
C1781      H1785   1.083       .  S
C1782      O1786   1.372       .  S
O1784      H1788   0.992       .  S
O1786      H1787   0.992       .  S
C1789      C1790   1.397   1_454  A
C1790      C1791   1.385   1_655  A
C1790      H1795   1.084       .  S
C1791      O1796   1.372   1_455  S
C1792      C1793   1.404       .  A
C1793      C1794   1.387   1_556  A
C1793      H1797   1.083   1_556  S
C1794      O1798   1.372       .  S
O1796      H1800   0.993       .  S
O1798      H1799   0.992       .  S
C1801      C1802   1.406       .  A
C1802      C1803   1.402       .  A
C1802      H1807   1.084       .  S
C1803      O1808   1.372       .  S
C1804      C1805   1.406   1_655  A
C1805      C1806   1.401       .  A
C1805      H1809   1.084       .  S
C1806      O1810   1.372       .  S
O1808      H1812   0.992       .  S
O1810      H1811   0.992       .  S
C1813      C1814   1.412       .  A
C1813      C1818   1.414       .  A
C1814      C1815   1.408       .  A
C1814      H1819   1.083       .  S
C1815      C1816   1.409       .  A
C1815      O1820   1.371       .  S
C1816      C1817   1.408       .  A
C1817      C1818   1.403       .  A
C1817      H1821   1.084       .  S
C1818      O1822   1.371       .  S
O1820      H1824   0.993       .  S
O1822      H1823   0.991       .  S
C1825      C1826   1.403       .  A
C1826      H1831   1.084       .  S
C1827      C1828   1.407       .  A
C1828      C1829   1.402       .  A
C1829      C1830   1.385       .  A
C1829      H1833   1.084       .  S
C1830      O1834   1.372       .  S
O1832      H1836   0.993       .  S
O1834      H1835   0.992       .  S
C1837      C1838   1.412       .  A
C1837      C1842   1.412       .  A
C1838      C1839   1.406       .  A
C1838      H1843   1.083       .  S
C1839      C1840   1.411       .  A
C1839      O1844   1.371       .  S
C1840      C1841   1.412       .  A
C1841      C1842   1.407       .  A
C1841      H1845   1.083       .  S
C1842      O1846   1.371       .  S
O1844      H1848   0.992       .  S
O1846      H1847   0.992       .  S
C1849      C1850   1.406       .  A
C1849      C1854   1.405       .  A
C1850      C1851   1.406       .  A
C1850      H1855   1.084       .  S
C1851      C1852   1.407       .  A
C1851      O1856   1.372       .  S
C1852      C1853   1.409       .  A
C1853      C1854   1.405       .  A
C1853      H1857   1.084       .  S
C1854      O1858   1.369       .  S
O1856      H1860   0.991       .  S
O1858      H1859   0.992       .  S
C1861      C1862   1.410       .  A
C1861      C1866   1.413       .  A
C1862      C1863   1.406       .  A
C1862      H1867   1.083       .  S
C1863      C1864   1.413       .  A
C1863      O1868   1.371       .  S
C1864      C1865   1.411       .  A
C1865      C1866   1.408       .  A
C1865      H1869   1.083   1_556  S
C1866      O1870   1.372   1_545  S
O1868      H1872   0.992       .  S
O1870      H1871   0.992       .  S
C1873      C1874   1.407       .  A
C1873      C1878   1.406       .  A
C1874      C2571   1.390   1_556  A
C1874      H1879   1.084       .  S
C1875      C2570   1.390   1_554  A
C1875      C1876   1.404   1_565  A
C1875      O1880   1.372       .  S
C1876      C2573   1.406       .  A
C1877      C2572   1.406       .  A
C1877      C1878   1.388   1_554  A
C1877      H2577   1.084       .  S
C1878      O1882   1.373       .  S
O1880      H1884   0.993   1_554  S
H1881      C2573   1.084       .  S
O1882      H1883   0.991       .  S
C1885      C1886   1.409       .  A
C1885      C1890   1.413   1_556  A
C1886      C1887   1.408   1_556  A
C1886      H1891   1.083       .  S
C1887      C1888   1.415       .  A
C1887      O1892   1.371       .  S
C1888      C1889   1.410       .  A
C1889      C1890   1.407       .  A
C1889      H1893   1.083       .  S
C1890      O1894   1.371       .  S
O1892      H1896   0.993       .  S
O1894      H1895   0.991       .  S
C1897      C1898   1.408       .  A
C1897      C1902   1.417       .  A
C1898      C1899   1.409       .  A
C1898      H1903   1.083       .  S
C1899      C1900   1.416       .  A
C1899      O1904   1.372       .  S
C1900      C1901   1.406       .  A
C1901      C1902   1.405       .  A
C1901      H1905   1.083       .  S
C1902      O1906   1.371       .  S
O1904      H1908   0.994       .  S
O1906      H1907   0.992       .  S
C1909      C1910   1.404       .  A
C1909      C1914   1.413       .  A
C1910      C1911   1.408       .  A
C1910      H1915   1.084       .  S
C1911      C1912   1.415       .  A
C1911      O1916   1.371       .  S
C1912      C1913   1.400       .  A
C1913      C1914   1.401       .  A
C1913      H1917   1.081       .  S
C1914      O1918   1.373       .  S
O1916      H1920   0.992   1_545  S
O1918      H1919   0.993       .  S
C1921      C2618   1.408   1_545  A
C1921      C1926   1.405       .  A
C1922      C2617   1.408       .  A
C1922      C1923   1.414       .  A
C1922      H1927   1.083       .  S
C1923      C1924   1.414       .  A
C1923      O1928   1.370       .  S
C1924      C1925   1.408       .  A
C1925      C2622   1.393       .  A
C1925      H1929   1.084       .  S
C1926      C2621   1.393       .  A
C1926      O1930   1.374       .  S
O1928      H1932   0.992       .  S
O1930      H1931   0.993       .  S
C1933      C1934   1.407       .  A
C1933      C1938   1.418       .  A
C1934      C1935   1.405       .  A
C1934      H1939   1.083       .  S
C1935      C1936   1.415       .  A
C1935      O1940   1.371       .  S
C1936      C1937   1.408       .  A
C1937      C1938   1.411       .  A
C1937      H1941   1.084       .  S
C1938      O1942   1.372       .  S
O1940      H1944   0.992       .  S
O1942      H1943   0.992       .  S
C1945      C2642   1.401   1_545  A
C1945      C1950   1.405       .  A
C1946      C2641   1.401       .  A
C1946      C1947   1.390       .  A
C1946      H1951   1.084       .  S
C1947      C1948   1.407       .  A
C1947      O1952   1.373       .  S
C1948      C1949   1.402       .  A
C1949      C2646   1.389       .  A
C1949      H1953   1.084       .  S
C1950      C2645   1.389       .  A
C1950      O1954   1.373       .  S
O1952      H1956   0.992       .  S
O1954      H1955   0.992       .  S
C1957      C1958   1.406       .  A
C1957      C1962   1.407       .  A
C1958      C1959   1.402       .  A
C1958      H1963   1.084       .  S
C1959      C1960   1.413       .  A
C1959      O1964   1.371       .  S
C1960      C1961   1.412       .  A
C1961      C1962   1.405       .  A
C1961      H1965   1.083   1_556  S
C1962      O1966   1.371       .  S
O1964      H1968   0.992       .  S
O1966      H1967   0.993       .  S
C1969      C1970   1.400       .  A
C1969      C1974   1.400   1_554  A
C1970      C1971   1.392       .  A
C1970      H1975   1.084       .  S
C1971      C1972   1.411   1_554  A
C1971      O1976   1.372       .  S
C1972      C1973   1.404       .  A
C1973      C1974   1.387       .  A
C1973      H1977   1.081       .  S
C1974      O1978   1.373       .  S
O1976      H1980   0.992       .  S
O1978      H1979   0.992       .  S
C1981      C1982   1.397       .  A
C1981      C1986   1.411       .  A
C1982      C1983   1.402       .  A
C1982      H1987   1.084       .  S
C1983      C1984   1.413       .  A
C1983      O1988   1.371       .  S
C1984      C1985   1.401       .  A
C1985      C1986   1.405       .  A
C1985      H1989   1.084       .  S
C1986      O1990   1.370       .  S
O1988      H1992   0.992       .  S
O1990      H1991   0.991       .  S
C1993      C1994   1.411       .  A
C1993      C1998   1.406       .  A
C1994      C1995   1.406       .  A
C1994      H1999   1.084       .  S
C1995      C1996   1.406       .  A
C1995      O2000   1.371       .  S
C1996      C1997   1.409       .  A
C1997      C1998   1.401       .  A
C1997      H2001   1.084       .  S
C1998      O2002   1.373       .  S
O2000      H2004   0.992       .  S
O2002      H2003   0.992       .  S
C2005      C2006   1.412       .  A
C2005      C2010   1.412   1_556  A
C2006      C2007   1.408   1_556  A
C2006      H2011   1.083       .  S
C2007      C2008   1.412       .  A
C2007      O2012   1.371       .  S
C2008      C2009   1.411       .  A
C2009      C2010   1.404       .  A
C2009      H2013   1.083       .  S
C2010      O2014   1.372       .  S
O2012      H2016   0.992       .  S
O2014      H2015   0.991       .  S
C2017      C2018   1.407       .  A
C2017      C2022   1.420       .  A
C2018      C2019   1.404       .  A
C2018      H2023   1.083       .  S
C2019      C2020   1.414       .  A
C2019      O2024   1.372       .  S
C2020      C2021   1.404       .  A
C2021      C2022   1.409       .  A
C2021      H2025   1.084       .  S
C2022      O2026   1.371       .  S
O2024      H2028   0.990       .  S
O2026      H2027   0.994       .  S
C2029      C2030   1.398       .  A
C2029      C2034   1.406       .  A
C2030      C2031   1.382       .  A
C2030      H2035   1.084       .  S
C2031      C2032   1.411       .  A
C2031      O2036   1.372       .  S
C2032      C2033   1.404       .  A
C2033      C2034   1.390       .  A
C2033      H2037   1.084       .  S
C2034      O2038   1.372       .  S
O2036      H2040   0.993       .  S
O2038      H2039   0.991       .  S
C2041      C2042   1.402       .  A
C2041      C2046   1.413       .  A
C2042      C2043   1.406       .  A
C2042      H2047   1.084       .  S
C2043      C2044   1.413       .  A
C2043      O2048   1.371       .  S
C2044      C2045   1.399       .  A
C2045      C2046   1.403       .  A
C2045      H2049   1.084       .  S
C2046      O2050   1.371       .  S
O2048      H2052   0.992       .  S
O2050      H2051   0.991       .  S
C2053      C2054   1.406       .  A
C2053      C2058   1.406       .  A
C2054      C2055   1.401       .  A
C2054      H2059   1.084       .  S
C2055      C2056   1.406       .  A
C2055      O2060   1.372       .  S
C2056      C2057   1.405       .  A
C2057      C2058   1.399       .  A
C2057      H2061   1.084       .  S
C2058      O2062   1.371       .  S
O2060      H2064   0.993       .  S
O2062      H2063   0.992       .  S
C2065      C2066   1.409       .  A
C2065      C2070   1.407       .  A
C2066      C2067   1.402       .  A
C2066      H2071   1.084       .  S
C2067      C2068   1.403       .  A
C2067      O2072   1.370       .  S
C2068      C2069   1.407       .  A
C2069      C2070   1.406       .  A
C2069      H2073   1.084       .  S
C2070      O2074   1.373       .  S
O2072      H2076   0.987       .  S
O2074      H2075   0.986       .  S
C2077      C2078   1.411       .  A
C2077      C2082   1.412       .  A
C2078      C2079   1.406       .  A
C2078      H2083   1.083       .  S
C2079      C2080   1.412       .  A
C2079      O2084   1.371       .  S
C2080      C2081   1.410       .  A
C2081      C2082   1.403       .  A
C2081      H2085   1.083       .  S
C2082      O2086   1.371   1_655  S
O2084      H2088   0.992       .  S
O2086      H2087   0.992   1_455  S
Fe2089     O2105   2.043       .  S
Fe2089     O2095   2.036       .  S
Fe2089     O2102   2.048       .  S
Fe2089     O2094   2.063       .  S
Fe2089     O2100   1.966       .  S
Fe2090     O2093   2.055       .  S
Fe2090     O2097   2.123       .  S
Fe2090     O2101   2.073       .  S
Fe2090     O2106   2.126       .  S
Fe2090     O2100   1.965       .  S
Fe2091     O2109   2.092       .  S
Fe2091     O2096   2.027       .  S
Fe2091     O2103   2.030       .  S
Fe2091     O2092   2.093       .  S
Fe2091     O2100   1.955       .  S
O2092      C2099   1.276       .  A
O2093      C2107   1.264       .  A
O2094      C2099   1.271       .  A
O2095      C2098   1.262       .  A
O2096      C2108   1.266       .  A
O2097      C2110   1.284       .  A
C2098      O2103   1.262       .  A
C2098      C2728   1.460       .  S
C2099      C2740   1.479       .  S
O2101      C2104   1.267       .  A
O2102      C2104   1.263       .  A
C2104      C2752   1.472       .  S
O2105      C2110   1.268       .  A
O2106      C2108   1.284       .  A
C2107      O2109   1.271       .  A
C2107      C2776   1.500       .  S
C2108      C2761   1.479       .  S
C2110      C2716   1.495       .  S
Fe2111     O2127   2.029       .  S
Fe2111     O2117   2.057       .  S
Fe2111     O2124   2.057       .  S
Fe2111     O2116   2.058       .  S
Fe2111     O2122   1.966       .  S
Fe2112     O2115   2.061       .  S
Fe2112     O2119   2.119       .  S
Fe2112     O2123   2.071       .  S
Fe2112     O2128   2.130       .  S
Fe2112     O2122   1.962       .  S
Fe2113     O2131   2.090       .  S
Fe2113     O2118   2.017       .  S
Fe2113     O2125   2.025       .  S
Fe2113     O2114   2.097       .  S
Fe2113     O2122   1.944       .  S
O2114      C2121   1.277       .  A
O2115      C2129   1.264       .  A
O2116      C2121   1.270       .  A
O2117      C2120   1.266       .  A
O2118      C2130   1.265       .  A
O2119      C2132   1.284       .  A
C2120      O2125   1.259       .  A
C2120      C2668   1.464       .  S
C2121      C2677   1.475       .  S
O2123      C2126   1.267       .  A
O2124      C2126   1.264       .  A
C2126      C2749   1.473       .  S
O2127      C2132   1.268       .  A
O2128      C2130   1.284       .  A
C2129      O2131   1.271       .  A
C2129      C2701   1.502       .  S
C2130      C2692   1.480       .  S
C2132      C2653   1.482       .  S
Fe2133     O2139   2.035       .  S
Fe2133     O2146   2.031       .  S
Fe2133     O2138   2.084       .  S
Fe2133     O2144   1.949       .  S
Fe2134     O2137   2.086       .  S
Fe2134     O2141   2.096       .  S
Fe2134     O2145   2.123       .  S
Fe2134     O2150   2.107       .  S
Fe2134     O2144   1.951       .  S
Fe2135     O2153   2.083       .  S
Fe2135     O2140   2.052       .  S
Fe2135     O2147   2.043       .  S
Fe2135     O2136   2.080       .  S
Fe2135     O2144   1.933       .  S
O2136      C2143   1.275       .  A
O2137      C2151   1.272       .  A
O2138      C2143   1.271       .  A
O2139      C2142   1.265       .  A
O2140      C2152   1.269       .  A
C2142      O2147   1.266       .  A
C2142      C2641   1.454       .  S
C2143      C2608   1.489       .  S
O2145      C2148   1.279       .  A
O2146      C2148   1.266       .  A
C2148      C2617   1.481       .  S
O2149      C2154   1.268       .  A
O2150      C2152   1.281       .  A
C2151      O2153   1.273       .  A
C2151      C2593   1.504       .  S
C2152      C2737   1.479       .  S
C2154      C2632   1.503       .  S
Fe2155     O2161   2.033       .  S
Fe2155     O2168   2.031       .  S
Fe2155     O2160   2.081       .  S
Fe2155     O2166   1.948       .  S
Fe2156     O2159   2.096       .  S
Fe2156     O2163   2.092       .  S
Fe2156     O2167   2.128       .  S
Fe2156     O2172   2.110       .  S
Fe2156     O2166   1.953       .  S
Fe2157     O2175   2.079       .  S
Fe2157     O2162   2.042       .  S
Fe2157     O2169   2.047       .  S
Fe2157     O2158   2.076       .  S
Fe2157     O2166   1.937       .  S
O2158      C2165   1.274       .  A
O2159      C2173   1.275       .  A
O2160      C2165   1.271       .  A
O2161      C2164   1.264       .  A
O2162      C2174   1.267       .  A
C2164      O2169   1.266       .  A
C2164      C2569   1.462       .  S
C2165      C2689   1.486       .  S
O2167      C2170   1.281       .  A
O2168      C2170   1.267       .  A
C2170      C2620   1.494       .  S
O2171      C2176   1.268       .  A
O2172      C2174   1.281       .  A
C2173      O2175   1.273       .  A
C2173      C2581   1.503       .  S
C2174      C2548   1.476       .  S
C2176      C2557   1.501       .  S
Fe2177     O2183   2.045       .  S
Fe2177     O2190   2.053   1_655  S
Fe2177     O2182   2.065       .  S
Fe2177     O2188   1.970       .  S
Fe2178     O2181   2.055       .  S
Fe2178     O2185   2.124       .  S
Fe2178     O2189   2.075       .  S
Fe2178     O2194   2.133       .  S
Fe2178     O2188   1.961       .  S
Fe2179     O2197   2.096       .  S
Fe2179     O2184   2.022       .  S
Fe2179     O2191   2.025       .  S
Fe2179     O2180   2.096       .  S
Fe2179     O2188   1.948       .  S
O2180      C2187   1.276       .  A
O2181      C2195   1.263       .  A
O2182      C2187   1.272       .  A
O2183      C2186   1.263       .  A
O2184      C2196   1.267       .  A
C2186      O2191   1.261       .  A
C2186      C2521   1.457       .  S
C2187      C2764   1.477       .  S
O2189      C2192   1.267       .  A
O2190      C2192   1.263   1_455  A
C2192      C2500   1.475       .  S
O2193      C2198   1.269       .  A
O2194      C2196   1.286       .  A
C2195      O2197   1.271       .  A
C2195      C2533   1.504       .  S
C2196      C2605   1.483       .  S
C2198      C2512   1.492       .  S
Fe2199     O2205   2.039       .  S
Fe2199     O2212   2.049       .  S
Fe2199     O2204   2.065       .  S
Fe2199     O2210   1.968       .  S
Fe2200     O2203   2.054       .  S
Fe2200     O2207   2.117       .  S
Fe2200     O2211   2.074       .  S
Fe2200     O2216   2.120       .  S
Fe2200     O2210   1.968       .  S
Fe2201     O2219   2.100       .  S
Fe2201     O2206   2.026       .  S
Fe2201     O2213   2.026       .  S
Fe2201     O2202   2.110       .  S
Fe2201     O2210   1.954       .  S
O2202      C2209   1.280       .  A
O2203      C2217   1.262       .  A
O2204      C2209   1.272       .  A
O2205      C2208   1.260       .  A
O2206      C2218   1.267       .  A
C2208      O2213   1.260       .  A
C2208      C2488   1.462       .  S
C2209      C2545   1.484       .  S
O2211      C2214   1.266       .  A
O2212      C2214   1.261       .  A
C2214      C2497   1.474       .  S
O2215      C2220   1.270       .  A
O2216      C2218   1.283       .  A
C2217      O2219   1.272       .  A
C2217      C2461   1.506       .  S
C2218      C2680   1.477       .  S
C2220      C2473   1.490       .  S
Fe2221     O2237   2.029       .  S
Fe2221     O2227   2.071       .  S
Fe2221     O2234   2.089       .  S
Fe2221     O2226   2.029       .  S
Fe2221     O2232   1.954       .  S
Fe2222     O2225   2.076       .  S
Fe2222     O2229   2.039       .  S
Fe2222     O2233   2.078       .  S
Fe2222     O2238   2.043       .  S
Fe2222     O2232   1.929       .  S
Fe2223     O2241   2.085       .  S
Fe2223     O2228   2.109       .  S
Fe2223     O2235   2.087       .  S
Fe2223     O2224   2.116       .  S
Fe2223     O2232   1.956       .  S
O2224      C2231   1.279       .  A
O2225      C2239   1.270       .  A
O2226      C2231   1.267       .  A
O2227      C2230   1.267       .  A
O2228      C2240   1.282       .  A
O2229      C2242   1.267       .  A
C2230      O2235   1.272       .  A
C2230      C2596   1.501       .  S
C2231      C2437   1.480       .  S
O2233      C2236   1.272       .  A
O2234      C2236   1.272       .  A
C2236      C2425   1.487       .  S
O2237      C2242   1.262       .  A
O2238      C2240   1.269       .  A
C2239      O2241   1.272       .  A
C2239      C2509   1.501       .  S
C2240      C2449   1.479       .  S
C2242      C2725   1.451       .  S
Fe2243     O2259   2.032       .  S
Fe2243     O2249   2.075       .  S
Fe2243     O2256   2.076       .  S
Fe2243     O2248   2.033       .  S
Fe2243     O2254   1.960       .  S
Fe2244     O2247   2.083       .  S
Fe2244     O2251   2.045       .  S
Fe2244     O2255   2.081       .  S
Fe2244     O2260   2.050       .  S
Fe2244     O2254   1.935       .  S
Fe2245     O2263   2.081       .  S
Fe2245     O2250   2.105       .  S
Fe2245     O2257   2.085       .  S
Fe2245     O2246   2.109       .  S
Fe2245     O2254   1.961       .  S
O2246      C2253   1.274       .  A
O2247      C2261   1.270       .  A
O2248      C2253   1.263       .  A
O2249      C2252   1.270       .  A
O2250      C2262   1.283       .  A
O2251      C2264   1.268       .  A
C2252      O2257   1.274       .  A
C2252      C2464   1.502       .  S
C2253      C2440   1.471       .  S
O2255      C2258   1.273       .  A
O2256      C2258   1.269       .  A
C2258      C2401   1.488       .  S
O2259      C2264   1.264       .  A
O2260      C2262   1.271       .  A
C2261      O2263   1.269       .  A
C2261      C2560   1.504   1_554  S
C2262      C2413   1.475       .  S
C2264      C2665   1.448       .  S
Fe2265     O2281   2.033       .  S
Fe2265     O2278   2.070       .  S
Fe2265     O2270   2.028       .  S
Fe2265     O2276   1.956       .  S
Fe2266     O2269   2.088       .  S
Fe2266     O2273   2.047       .  S
Fe2266     O2277   2.090       .  S
Fe2266     O2282   2.044       .  S
Fe2266     O2276   1.944       .  S
Fe2267     O2285   2.083       .  S
Fe2267     O2272   2.110       .  S
Fe2267     O2279   2.095       .  S
Fe2267     O2268   2.123       .  S
Fe2267     O2276   1.960       .  S
O2268      C2275   1.279       .  A
O2269      C2283   1.275       .  A
O2270      C2275   1.266       .  A
O2271      C2274   1.265       .  A
O2272      C2284   1.281       .  A
O2273      C2286   1.266       .  A
C2274      C2536   1.502       .  S
C2275      C2389   1.483       .  S
O2277      C2280   1.275       .  A
O2278      C2280   1.269       .  A
C2280      C2377   1.491       .  S
O2281      C2286   1.266       .  A
O2282      C2284   1.268       .  A
C2283      O2285   1.271       .  A
C2283      C2713   1.505       .  S
C2284      C2428   1.478       .  S
C2286      C2644   1.456       .  S
Fe2287     O2303   2.045       .  S
Fe2287     O2300   2.075       .  S
Fe2287     O2292   2.033       .  S
Fe2287     O2298   1.954       .  S
Fe2288     O2291   2.074       .  S
Fe2288     O2295   2.035       .  S
Fe2288     O2299   2.082       .  S
Fe2288     O2304   2.034       .  S
Fe2288     O2298   1.939       .  S
Fe2289     O2307   2.086       .  S
Fe2289     O2294   2.121       .  S
Fe2289     O2301   2.099       .  S
Fe2289     O2290   2.124       .  S
Fe2289     O2298   1.960       .  S
O2290      C2297   1.281       .  A
O2291      C2305   1.272       .  A
O2292      C2297   1.268       .  A
O2293      C2296   1.265       .  A
O2294      C2306   1.284       .  A
O2295      C2308   1.264       .  A
C2296      C2704   1.501       .  S
C2297      C2392   1.495       .  S
O2299      C2302   1.275       .  A
O2300      C2302   1.269       .  A
C2302      C2416   1.489       .  S
O2303      C2308   1.266       .  A
O2304      C2306   1.265       .  A
C2305      O2307   1.272       .  A
C2305      C2476   1.500       .  S
C2306      C2365   1.481       .  S
C2308      C2572   1.461       .  S
Fe2309     O2325   2.025   1_655  S
Fe2309     O2322   2.090       .  S
Fe2309     O2314   2.031       .  S
Fe2309     O2320   1.954       .  S
Fe2310     O2313   2.076       .  S
Fe2310     O2317   2.040       .  S
Fe2310     O2321   2.082       .  S
Fe2310     O2326   2.048       .  S
Fe2310     O2320   1.929       .  S
Fe2311     O2329   2.073       .  S
Fe2311     O2316   2.107       .  S
Fe2311     O2323   2.086       .  S
Fe2311     O2312   2.106       .  S
Fe2311     O2320   1.961       .  S
O2312      C2319   1.275       .  A
O2313      C2327   1.270       .  A
O2314      C2319   1.266       .  A
O2315      C2318   1.270       .  A
O2316      C2328   1.283       .  A
O2317      C2330   1.267       .  A
C2318      C2584   1.504       .  S
C2319      C2356   1.470       .  S
O2321      C2324   1.274       .  A
O2322      C2324   1.272       .  A
C2324      C2368   1.493       .  S
O2325      C2330   1.262   1_455  A
O2326      C2328   1.270       .  A
C2327      O2329   1.268       .  A
C2327      C2656   1.497   1_554  S
C2328      C2404   1.478       .  S
C2330      C2485   1.446   1_655  S
Fe2331     O2347   2.028       .  S
Fe2331     O2344   2.083       .  S
Fe2331     O2336   2.025       .  S
Fe2331     O2342   1.949       .  S
Fe2332     O2335   2.080       .  S
Fe2332     O2339   2.035       .  S
Fe2332     O2343   2.082       .  S
Fe2332     O2348   2.039       .  S
Fe2332     O2342   1.928       .  S
Fe2333     O2351   2.091       .  S
Fe2333     O2338   2.106       .  S
Fe2333     O2345   2.084       .  S
Fe2333     O2334   2.114       .  S
Fe2333     O2342   1.954       .  S
O2334      C2341   1.277       .  A
O2335      C2349   1.272       .  A
O2336      C2341   1.263       .  A
O2337      C2340   1.268       .  A
O2338      C2350   1.283       .  A
O2339      C2352   1.266       .  A
C2340      C2773   1.498       .  S
C2341      C2353   1.481       .  S
O2343      C2346   1.275       .  A
O2344      C2346   1.271       .  A
C2346      C2452   1.493       .  S
O2347      C2352   1.262       .  A
O2348      C2350   1.268       .  A
C2349      O2351   1.272       .  A
C2349      C2629   1.506       .  S
C2350      C2380   1.472       .  S
C2352      C2524   1.456       .  S
C2353      C2354   1.407       .  A
C2353      C2358   1.414       .  A
C2354      C2355   1.407       .  A
C2354      H2359   1.083       .  S
C2355      O2360   1.371       .  S
C2356      C2357   1.397       .  A
C2357      H2361   1.084       .  S
C2358      O2362   1.373       .  S
O2360      H2364   0.992       .  S
C2365      C2366   1.405       .  A
C2365      C2370   1.413       .  A
C2366      C2367   1.410       .  A
C2366      H2371   1.084       .  S
C2367      C2368   1.415       .  A
C2367      O2372   1.371       .  S
C2368      C2369   1.402       .  A
C2369      C2370   1.404       .  A
C2369      H2373   1.083       .  S
C2370      O2374   1.373       .  S
O2372      H2376   0.992   1_655  S
O2374      H2375   0.992       .  S
C2377      C2378   1.411       .  A
C2377      C2382   1.407       .  A
C2378      C2379   1.404       .  A
C2378      H2383   1.084       .  S
C2379      C2380   1.404       .  A
C2379      O2384   1.371       .  S
C2380      C2381   1.408       .  A
C2381      C2382   1.404       .  A
C2381      H2385   1.084       .  S
C2382      O2386   1.371       .  S
O2384      H2388   0.992       .  S
O2386      H2387   0.992       .  S
C2389      C2394   1.407       .  A
C2390      C2391   1.414       .  A
C2390      H2395   1.083       .  S
C2391      C2392   1.415       .  A
C2391      O2396   1.370       .  S
C2393      C2394   1.391       .  A
C2393      H2397   1.083       .  S
C2394      O2398   1.373       .  S
O2396      H2400   0.992       .  S
O2398      H2399   0.992       .  S
C2401      C2402   1.401       .  A
C2401      C2406   1.414       .  A
C2402      C2403   1.402       .  A
C2402      H2407   1.081       .  S
C2403      C2404   1.412       .  A
C2403      O2408   1.373       .  S
C2404      C2405   1.402       .  A
C2405      C2406   1.407       .  A
C2405      H2409   1.084       .  S
C2406      O2410   1.371       .  S
O2408      H2412   0.992       .  S
O2410      H2411   0.992       .  S
C2413      C2414   1.401       .  A
C2413      C2418   1.411       .  A
C2414      C2415   1.406       .  A
C2414      H2419   1.084       .  S
C2415      C2416   1.417       .  A
C2415      O2420   1.371       .  S
C2416      C2417   1.401       .  A
C2417      C2418   1.402       .  A
C2417      H2421   1.083       .  S
C2418      O2422   1.371       .  S
O2420      H2424   0.992       .  S
O2422      H2423   0.992       .  S
C2425      C2426   1.403       .  A
C2425      C2430   1.413       .  A
C2426      C2427   1.406       .  A
C2426      H2431   1.084       .  S
C2427      C2428   1.411       .  A
C2427      O2432   1.371       .  S
C2428      C2429   1.404       .  A
C2429      C2430   1.406       .  A
C2429      H2433   1.084       .  S
C2430      O2434   1.372       .  S
O2432      H2436   0.990       .  S
O2434      H2435   0.991       .  S
C2437      C2438   1.405       .  A
C2437      C2442   1.410       .  A
C2438      C2439   1.391       .  A
C2438      H2443   1.084       .  S
C2439      C2440   1.403       .  A
C2439      O2444   1.372       .  S
C2440      C2441   1.407       .  A
C2441      C2442   1.409       .  A
C2441      H2445   1.083       .  S
C2442      O2446   1.371       .  S
O2444      H2448   0.992       .  S
O2446      H2447   0.992       .  S
C2449      C2450   1.402       .  A
C2449      C2454   1.412       .  A
C2450      C2451   1.408       .  A
C2450      H2455   1.084       .  S
C2451      C2452   1.418       .  A
C2451      O2456   1.371       .  S
C2452      C2453   1.403       .  A
C2453      C2454   1.400       .  A
C2453      H2457   1.084       .  S
C2454      O2458   1.372       .  S
O2456      H2460   0.993       .  S
O2458      H2459   0.991       .  S
C2461      C2462   1.407   1_556  A
C2461      C2466   1.419       .  A
C2462      C2463   1.409       .  A
C2462      H2467   1.083       .  S
C2463      C2464   1.418       .  A
C2463      O2468   1.371       .  S
C2464      C2465   1.405       .  A
C2465      C2466   1.404   1_554  A
C2465      H2469   1.083       .  S
C2466      O2470   1.371       .  S
O2468      H2472   0.992       .  S
O2470      H2471   0.992       .  S
C2473      C2474   1.406       .  A
C2473      C2478   1.413       .  A
C2474      C2475   1.409       .  A
C2475      C2476   1.418   1_556  A
C2475      O2480   1.371   1_556  S
C2476      C2477   1.406   1_554  A
C2477      C2478   1.399       .  A
C2477      H2481   1.083       .  S
C2478      O2482   1.372       .  S
O2480      H2484   0.992       .  S
O2482      H2483   0.992       .  S
C2485      C2486   1.397   1_454  A
C2486      C2487   1.385   1_655  A
C2486      H2491   1.084       .  S
C2487      O2492   1.372   1_455  S
C2488      C2489   1.404       .  A
C2489      C2490   1.387   1_556  A
C2489      H2493   1.083   1_556  S
C2490      O2494   1.372       .  S
O2492      H2496   0.992       .  S
O2494      H2495   0.992       .  S
C2497      C2498   1.406       .  A
C2498      C2499   1.402       .  A
C2498      H2503   1.084       .  S
C2499      O2504   1.372       .  S
C2500      C2501   1.406   1_655  A
C2501      C2502   1.401       .  A
C2501      H2505   1.084       .  S
C2502      O2506   1.372       .  S
O2504      H2508   0.992       .  S
O2506      H2507   0.992       .  S
C2509      C2510   1.412       .  A
C2509      C2514   1.414       .  A
C2510      C2511   1.408       .  A
C2510      H2515   1.083       .  S
C2511      C2512   1.409       .  A
C2511      O2516   1.371       .  S
C2512      C2513   1.408       .  A
C2513      C2514   1.403       .  A
C2513      H2517   1.084       .  S
C2514      O2518   1.371       .  S
O2516      H2520   0.993       .  S
O2518      H2519   0.991       .  S
C2521      C2522   1.403       .  A
C2522      H2527   1.084       .  S
C2523      C2524   1.407       .  A
C2524      C2525   1.402       .  A
C2525      C2526   1.385       .  A
C2525      H2529   1.084       .  S
C2526      O2530   1.372       .  S
O2528      H2532   0.993       .  S
O2530      H2531   0.992       .  S
C2533      C2534   1.412       .  A
C2533      C2538   1.412       .  A
C2534      C2535   1.406       .  A
C2534      H2539   1.083       .  S
C2535      C2536   1.411       .  A
C2535      O2540   1.371       .  S
C2536      C2537   1.412       .  A
C2537      C2538   1.407       .  A
C2537      H2541   1.083       .  S
C2538      O2542   1.371       .  S
O2540      H2544   0.992       .  S
O2542      H2543   0.992       .  S
C2545      C2546   1.406       .  A
C2545      C2550   1.405       .  A
C2546      C2547   1.406       .  A
C2546      H2551   1.084       .  S
C2547      C2548   1.407       .  A
C2547      O2552   1.372       .  S
C2548      C2549   1.409       .  A
C2549      C2550   1.405       .  A
C2549      H2553   1.084       .  S
C2550      O2554   1.369       .  S
O2552      H2556   0.991       .  S
O2554      H2555   0.992       .  S
C2557      C2558   1.410       .  A
C2557      C2562   1.413       .  A
C2558      C2559   1.406       .  A
C2558      H2563   1.083       .  S
C2559      C2560   1.413       .  A
C2559      O2564   1.371       .  S
C2560      C2561   1.411   1_556  A
C2561      C2562   1.408   1_554  A
C2561      H2565   1.083       .  S
C2562      O2566   1.372       .  S
O2564      H2568   0.992       .  S
O2566      H2567   0.992       .  S
C2569      C2570   1.407       .  A
C2569      C2574   1.406   1_565  A
C2570      H2575   1.084       .  S
C2571      C2572   1.404       .  A
C2571      O2576   1.372       .  S
C2573      C2574   1.388   1_554  A
C2574      O2578   1.373       .  S
O2576      H2580   0.993   1_554  S
O2578      H2579   0.991       .  S
C2581      C2582   1.409       .  A
C2581      C2586   1.413   1_556  A
C2582      C2583   1.408   1_556  A
C2582      H2587   1.083       .  S
C2583      C2584   1.415       .  A
C2583      O2588   1.371       .  S
C2584      C2585   1.410       .  A
C2585      C2586   1.407       .  A
C2585      H2589   1.083       .  S
C2586      O2590   1.371       .  S
O2588      H2592   0.993       .  S
O2590      H2591   0.991       .  S
C2593      C2594   1.408       .  A
C2593      C2598   1.417       .  A
C2594      C2595   1.409       .  A
C2594      H2599   1.083       .  S
C2595      C2596   1.416       .  A
C2595      O2600   1.372       .  S
C2596      C2597   1.406       .  A
C2597      C2598   1.405       .  A
C2597      H2601   1.083       .  S
C2598      O2602   1.371       .  S
O2600      H2604   0.994       .  S
O2602      H2603   0.992       .  S
C2605      C2606   1.404       .  A
C2605      C2610   1.413       .  A
C2606      C2607   1.408       .  A
C2606      H2611   1.084       .  S
C2607      C2608   1.415       .  A
C2607      O2612   1.371       .  S
C2608      C2609   1.400       .  A
C2609      C2610   1.401       .  A
C2609      H2613   1.081       .  S
C2610      O2614   1.373       .  S
O2612      H2616   0.992       .  S
O2614      H2615   0.993       .  S
C2617      C2622   1.405       .  A
C2618      C2619   1.414       .  A
C2618      H2623   1.083       .  S
C2619      C2620   1.414       .  A
C2619      O2624   1.370       .  S
C2620      C2621   1.408   1_565  A
C2621      H2625   1.084       .  S
C2622      O2626   1.374       .  S
O2624      H2628   0.992       .  S
O2626      H2627   0.993       .  S
C2629      C2630   1.407       .  A
C2629      C2634   1.418       .  A
C2630      C2631   1.405       .  A
C2630      H2635   1.083       .  S
C2631      C2632   1.415       .  A
C2631      O2636   1.371       .  S
C2632      C2633   1.408       .  A
C2633      C2634   1.411       .  A
C2633      H2637   1.084       .  S
C2634      O2638   1.372       .  S
O2636      H2640   0.992       .  S
O2638      H2639   0.992       .  S
C2641      C2646   1.405       .  A
C2642      C2643   1.390       .  A
C2642      H2647   1.084       .  S
C2643      C2644   1.407       .  A
C2643      O2648   1.373       .  S
C2644      C2645   1.402   1_565  A
C2645      H2649   1.084       .  S
C2646      O2650   1.373       .  S
O2648      H2652   0.992       .  S
O2650      H2651   0.992       .  S
C2653      C2654   1.406       .  A
C2653      C2658   1.407       .  A
C2654      C2655   1.402       .  A
C2654      H2659   1.084       .  S
C2655      C2656   1.413       .  A
C2655      O2660   1.371       .  S
C2656      C2657   1.412       .  A
C2657      C2658   1.405       .  A
C2657      H2661   1.083   1_556  S
C2658      O2662   1.371       .  S
O2660      H2664   0.992       .  S
O2662      H2663   0.993       .  S
C2665      C2666   1.400       .  A
C2665      C2670   1.400   1_554  A
C2666      C2667   1.392       .  A
C2666      H2671   1.084       .  S
C2667      C2668   1.411   1_554  A
C2667      O2672   1.372       .  S
C2668      C2669   1.404       .  A
C2669      C2670   1.387       .  A
C2669      H2673   1.081       .  S
C2670      O2674   1.373       .  S
O2672      H2676   0.992       .  S
O2674      H2675   0.992       .  S
C2677      C2678   1.397       .  A
C2677      C2682   1.411       .  A
C2678      C2679   1.402       .  A
C2678      H2683   1.084       .  S
C2679      C2680   1.413       .  A
C2679      O2684   1.371       .  S
C2680      C2681   1.401       .  A
C2681      C2682   1.405       .  A
C2681      H2685   1.084       .  S
C2682      O2686   1.370       .  S
O2684      H2688   0.992       .  S
O2686      H2687   0.991       .  S
C2689      C2690   1.411       .  A
C2689      C2694   1.406       .  A
C2690      C2691   1.406       .  A
C2690      H2695   1.084       .  S
C2691      C2692   1.406       .  A
C2691      O2696   1.371       .  S
C2692      C2693   1.409       .  A
C2693      C2694   1.401       .  A
C2693      H2697   1.084       .  S
C2694      O2698   1.373       .  S
O2696      H2700   0.992       .  S
O2698      H2699   0.992       .  S
C2701      C2702   1.412       .  A
C2701      C2706   1.412   1_556  A
C2702      C2703   1.408   1_556  A
C2702      H2707   1.083       .  S
C2703      C2704   1.412       .  A
C2703      O2708   1.371       .  S
C2704      C2705   1.411       .  A
C2705      C2706   1.404       .  A
C2705      H2709   1.083       .  S
C2706      O2710   1.372       .  S
O2708      H2712   0.992       .  S
O2710      H2711   0.991       .  S
C2713      C2714   1.407       .  A
C2713      C2718   1.420       .  A
C2714      C2715   1.404       .  A
C2714      H2719   1.083       .  S
C2715      C2716   1.414       .  A
C2715      O2720   1.372       .  S
C2716      C2717   1.404       .  A
C2717      C2718   1.409       .  A
C2717      H2721   1.084       .  S
C2718      O2722   1.371       .  S
O2720      H2724   0.990       .  S
O2722      H2723   0.994       .  S
C2725      C2726   1.398       .  A
C2725      C2730   1.406       .  A
C2726      C2727   1.382       .  A
C2726      H2731   1.084       .  S
C2727      C2728   1.411       .  A
C2727      O2732   1.372       .  S
C2728      C2729   1.404       .  A
C2729      C2730   1.391       .  A
C2729      H2733   1.084       .  S
C2730      O2734   1.372       .  S
O2732      H2736   0.993       .  S
O2734      H2735   0.991       .  S
C2737      C2738   1.402       .  A
C2737      C2742   1.413       .  A
C2738      C2739   1.406       .  A
C2738      H2743   1.084       .  S
C2739      C2740   1.413       .  A
C2739      O2744   1.371       .  S
C2740      C2741   1.399       .  A
C2741      C2742   1.403       .  A
C2741      H2745   1.084       .  S
C2742      O2746   1.371       .  S
O2744      H2748   0.992       .  S
O2746      H2747   0.991       .  S
C2749      C2750   1.406       .  A
C2749      C2754   1.406       .  A
C2750      C2751   1.401       .  A
C2750      H2755   1.084       .  S
C2751      C2752   1.406       .  A
C2751      O2756   1.372       .  S
C2752      C2753   1.405       .  A
C2753      C2754   1.399       .  A
C2753      H2757   1.084       .  S
C2754      O2758   1.371       .  S
O2756      H2760   0.993       .  S
O2758      H2759   0.992       .  S
C2761      C2762   1.409       .  A
C2761      C2766   1.407       .  A
C2762      C2763   1.402       .  A
C2762      H2767   1.084       .  S
C2763      C2764   1.403       .  A
C2763      O2768   1.370       .  S
C2764      C2765   1.407       .  A
C2765      C2766   1.406       .  A
C2765      H2769   1.084       .  S
C2766      O2770   1.373       .  S
O2768      H2772   0.987       .  S
O2770      H2771   0.986       .  S
C2773      C2774   1.411       .  A
C2773      C2778   1.412       .  A
C2774      C2775   1.406       .  A
C2774      H2779   1.083       .  S
C2775      C2776   1.412       .  A
C2775      O2780   1.371       .  S
C2776      C2777   1.410       .  A
C2777      C2778   1.403       .  A
C2777      H2781   1.083       .  S
C2778      O2782   1.371   1_655  S
O2780      H2784   0.992       .  S
O2782      H2783   0.992   1_455  S
