geometry optimzed in LAMMPS
_audit_creation_date              2020-12-01 
_audit_creation_method            'lammps2cif' 
_symmetry_space_group_name_H-M    'P1' 
_symmetry_Int_Tables_number       1 
_symmetry_cell_setting            triclinic 
loop_ 
_symmetry_equiv_pos_as_xyz 
  x,y,z 
_cell_length_a                    48.32027123 
_cell_length_b                    48.18364615852652 
_cell_length_c                    33.88760475374186 
_cell_angle_alpha                 90.05301568345637 
_cell_angle_beta                  90.06584553255551 
_cell_angle_gamma                 89.75887706928927 
loop_ 
_atom_site_label 
_atom_site_type_symbol 
_atom_site_fract_x 
_atom_site_fract_y 
_atom_site_fract_z 
_atom_site_charge 
O1          O  0.61155659  0.11710213  0.62749908    -0.80300
O2          O  0.53369716  0.10813165  0.76652886    -0.65000
O3          O  0.59612246  0.09704849  0.70004352    -1.11600
C4          C  0.53612885  0.03617391  0.63197063     1.06500
O5          O  0.52521465  0.06329647  0.77073658    -0.78200
O6          O  0.55864411  0.02811257  0.73069462    -0.65800
Ni7        Ni  0.61613042  0.12852865  0.68130651     1.34900
C8          C  0.58213912  0.02542304  0.71438858     0.85300
O9          O  0.58543375  0.12656261  0.76933498    -0.78800
O10         O  0.62170619  0.14205296  0.73426538    -0.89100
C11         C  0.52112485  0.08804695  0.78241883     0.84800
O12         O  0.58649968  0.15434338  0.67366417    -0.67300
O13         O  0.52526805  0.03260623  0.66580654    -0.86600
C14         C  0.56151436  0.15437686  0.68474737     0.85700
C15         C  0.60737604  0.14099540  0.76587149     1.07200
H16         H  0.53257319  0.09151075  0.68266239     0.39000
O17         O  0.54612283  0.08049695  0.69670998    -1.09200
O18         O  0.59064918  0.04129217  0.68699614    -0.65900
Ni19       Ni  0.57684491  0.07473266  0.66200469     1.26300
O20         O  0.55158179  0.13526149  0.70611014    -0.66100
O21         O  0.55601059  0.05290833  0.62554741    -0.78400
C22         C  0.61978512  0.09370019  0.61489554     0.85100
O23         O  0.60848373  0.07176126  0.62769917    -0.65600
Ni24       Ni  0.52679103  0.04932721  0.71720436     1.27400
Ni25       Ni  0.56529993  0.10341311  0.73358384     1.26100
H26         H  0.60917675  0.08552249  0.71421059     0.39600
O27         O  0.46788949  0.91112173  0.26199084    -0.80300
O28         O  0.38307674  0.89849882  0.39932608    -0.65000
O29         O  0.44660557  0.88916759  0.33314865    -1.11600
C30         C  0.38703345  0.82980408  0.26155076     1.06500
O31         O  0.37997393  0.85293016  0.40152544    -0.78200
O32         O  0.41243141  0.81853579  0.35922449    -0.65800
Ni33       Ni  0.46865586  0.92001755  0.31726306     1.34900
C34         C  0.43485995  0.81721455  0.33995188     0.85300
O35         O  0.43539921  0.91772363  0.40465113    -0.78800
O36         O  0.47253077  0.93211685  0.37059518    -0.89100
C37         C  0.37106122  0.87673787  0.41148096     0.84800
O38         O  0.43909149  0.94534977  0.30841244    -0.67300
O39         O  0.37738555  0.82399290  0.29562277    -0.86600
C40         C  0.41360841  0.94628668  0.31744639     0.85700
C41         C  0.45813419  0.93098974  0.40186253     1.07200
H42         H  0.38228450  0.88347837  0.31637588     0.39000
O43         O  0.39659550  0.87266249  0.32915253    -1.09200
O44         O  0.44128817  0.83472716  0.31374125    -0.65900
Ni45       Ni  0.42656390  0.86893745  0.29357702     1.26300
O46         O  0.40223753  0.92813140  0.33937465    -0.66100
O47         O  0.40508347  0.84867751  0.25589165    -0.78400
C48         C  0.46944687  0.88779180  0.24491463     0.85100
O49         O  0.45700971  0.86683778  0.25842401    -0.65600
Ni50       Ni  0.37964440  0.83954078  0.34812680     1.27400
Ni51       Ni  0.41544349  0.89534246  0.36699008     1.26100
H52         H  0.45895525  0.87658786  0.34677248     0.39600
O53         O  0.61382197  0.85023881  0.86983317    -0.80300
O54         O  0.62315521  0.77751181  0.01955203    -0.65000
O55         O  0.63191861  0.83602355  0.94503881    -1.11600
C56         C  0.69009441  0.77069074  0.87983009     1.06500
O57         O  0.66718681  0.76600027  0.02043965    -0.78200
O58         O  0.70282917  0.79351358  0.97400583    -0.65800
Ni59       Ni  0.59971182  0.85304584  0.92267105     1.34900
C60         C  0.70482569  0.81790324  0.96040204     0.85300
O61         O  0.60557404  0.83003593  0.01675186    -0.78800
O62         O  0.58283195  0.85762578  0.97387759    -0.89100
C63         C  0.64315031  0.76474020  0.03551577     0.84800
O64         O  0.57883459  0.82030883  0.91279475    -0.67300
O65         O  0.69137812  0.75857144  0.91319943    -0.86600
C66         C  0.57635146  0.79836854  0.93284226     0.85700
C67         C  0.58749171  0.84847755  0.00863320     1.07200
H68         H  0.63550566  0.77255925  0.93257307     0.39000
O69         O  0.64768191  0.78543609  0.94578383    -1.09200
O70         O  0.68750219  0.82861982  0.93639236    -0.65900
Ni71       Ni  0.65466546  0.81527901  0.90960560     1.26300
O72         O  0.59298354  0.79240949  0.96063659    -0.66100
O73         O  0.67666361  0.79316021  0.87433431    -0.78400
C74         C  0.63778426  0.85777710  0.85908942     0.85100
O75         O  0.65895360  0.84642496  0.87454258    -0.65600
Ni76       Ni  0.67785026  0.76382319  0.96558841     1.27400
Ni77       Ni  0.62667592  0.80705301  0.98234869     1.26100
H78         H  0.64273362  0.85047402  0.95735372     0.39600
O79         O  0.82313093  0.71324504  0.53271604    -0.80300
O80         O  0.84127739  0.61333767  0.65526103    -0.65000
O81         O  0.84477000  0.68056869  0.59525315    -1.11600
C82         C  0.90564534  0.62862580  0.51628749     1.06500
O83         O  0.88674412  0.61046087  0.65509047    -0.78200
O84         O  0.91600871  0.64938849  0.61669764    -0.65800
Ni85       Ni  0.81067142  0.69936590  0.58288732     1.34900
C86         C  0.91635495  0.67211742  0.59800611     0.85300
O87         O  0.82209142  0.66442540  0.66789471    -0.78800
O88         O  0.79327942  0.69019886  0.63209664    -0.89100
C89         C  0.86340291  0.60122649  0.66574740     0.84800
O90         O  0.79577148  0.66746142  0.55816581    -0.67300
O91         O  0.91365942  0.61838202  0.54904088    -0.86600
C92         C  0.79362956  0.64299334  0.57182462     0.85700
C93         C  0.80125766  0.68020494  0.66486093     1.07200
H94         H  0.85319827  0.61655399  0.57251804     0.39000
O95         O  0.86363510  0.63098347  0.58553151    -1.09200
O96         O  0.89841467  0.67798032  0.57184955    -0.65900
Ni97       Ni  0.86429955  0.66265267  0.55258917     1.26300
O98         O  0.80832076  0.63420721  0.60069174    -0.66100
O99         O  0.88413387  0.64363392  0.51229103    -0.78400
C100        C  0.84464449  0.71100085  0.51152559     0.85100
O101        O  0.86392528  0.69399436  0.51882117    -0.65600
Ni102      Ni  0.89854292  0.61551129  0.60148021     1.27400
Ni103      Ni  0.84214334  0.64726629  0.62630132     1.26100
H104        H  0.85670010  0.69352163  0.60876890     0.39600
O105        O  0.02194403  0.06176843  0.76656120    -0.80300
O106        O  0.10775211  0.06658466  0.90505177    -0.65000
O107        O  0.04462892  0.08011437  0.83932239    -1.11600
C108        C  0.10490295  0.14136031  0.77367126     1.06500
O109        O  0.11224364  0.11206290  0.91211462    -0.78200
O110        O  0.07919354  0.14761734  0.87304053    -0.65800
Ni111      Ni  0.02142208  0.05071019  0.82125426     1.34900
C112        C  0.05710433  0.15040694  0.85328918     0.85300
O113        O  0.05520291  0.04860915  0.90845287    -0.78800
O114        O  0.01735719  0.03695353  0.87390581    -0.89100
C115        C  0.11831423  0.08738010  0.92246489     0.84800
O116        O  0.05026358  0.02483076  0.81009909    -0.67300
O117        O  0.11431410  0.14555113  0.80844057    -0.86600
C118        C  0.07585778  0.02286705  0.81844855     0.85700
C119        C  0.03194288  0.03641159  0.90514882     1.07200
H120        H  0.10932376  0.08498584  0.82369169     0.39000
O121        O  0.09507215  0.09544836  0.83715565    -1.09200
O122        O  0.05115288  0.13499185  0.82424538    -0.65900
Ni123      Ni  0.06527168  0.10124455  0.80166765     1.26300
O124        O  0.08781106  0.03983495  0.84181546    -0.66100
O125        O  0.08723565  0.12246424  0.76607637    -0.78400
C126        C  0.02089365  0.08608112  0.75215198     0.85100
O127        O  0.03507831  0.10551365  0.76656885    -0.65600
Ni128      Ni  0.11208254  0.12748073  0.85954175     1.27400
Ni129      Ni  0.07565169  0.07176773  0.87256641     1.26100
H130        H  0.03271316  0.09252219  0.85398351     0.39600
O131        O  0.87636720  0.84783244  0.13378531    -0.80300
O132        O  0.95689972  0.86211263  0.26878380    -0.65000
O133        O  0.89258627  0.86921953  0.20513273    -1.11600
C134        C  0.94818276  0.93181918  0.13315650     1.06500
O135        O  0.96362046  0.90747126  0.27208252    -0.78200
O136        O  0.92684781  0.93972531  0.23411681    -0.65800
Ni137      Ni  0.87328188  0.83697857  0.18788975     1.34900
C138        C  0.90248875  0.94054520  0.22015888     0.85300
O139        O  0.90592151  0.84135184  0.27427576    -0.78800
O140        O  0.86907909  0.82448569  0.24145445    -0.89100
C141        C  0.96809362  0.88303524  0.28469705     0.84800
O142        O  0.90368499  0.81222593  0.17968030    -0.67300
O143        O  0.95899770  0.93695584  0.16667781    -0.86600
C144        C  0.92898993  0.81337829  0.18916539     0.85700
C145        C  0.88370219  0.82711922  0.27263983     1.07200
H146        H  0.95531349  0.87775889  0.18460525     0.39000
O147        O  0.94159598  0.88819681  0.19918165    -1.09200
O148        O  0.89442608  0.92461814  0.19247730    -0.65900
Ni149      Ni  0.90959629  0.89223193  0.16613511     1.26300
O150        O  0.93904492  0.83289657  0.20981072    -0.66100
O151        O  0.92834020  0.91480373  0.12808214    -0.78400
C152        C  0.86649938  0.87067226  0.12154956     0.85100
O153        O  0.87692087  0.89323703  0.13376405    -0.65600
Ni154      Ni  0.95956456  0.92070927  0.21847508     1.27400
Ni155      Ni  0.92444535  0.86468387  0.23715335     1.26100
H156        H  0.87940790  0.88015623  0.21997423     0.39600
O157        O  0.18159115  0.76597423  0.51008568    -0.80300
O158        O  0.16341959  0.84890546  0.65026372    -0.65000
O159        O  0.15815145  0.78543741  0.58227857    -1.11600
C160        C  0.09504039  0.84162911  0.51249872     1.06500
O161        O  0.11780455  0.85054542  0.65256961    -0.78200
O162        O  0.08620771  0.81641340  0.60940407    -0.65800
Ni163      Ni  0.19001095  0.76493204  0.56579530     1.34900
C164        C  0.08564058  0.79358922  0.59071913     0.85300
O165        O  0.18513720  0.79718318  0.65422564    -0.78800
O166        O  0.20127172  0.76087322  0.61952355    -0.89100
C167        C  0.14121760  0.85871565  0.66487159     0.84800
O168        O  0.21404172  0.79565604  0.55895312    -0.67300
O169        O  0.08937153  0.85190480  0.54628894    -0.86600
C170        C  0.21372478  0.82085582  0.56974710     0.85700
C171        C  0.19890007  0.77460824  0.65151167     1.07200
H172        H  0.14892245  0.84946687  0.56653325     0.39000
O173        O  0.13883419  0.83469367  0.57924721    -1.09200
O174        O  0.10337984  0.78771646  0.56439096    -0.65900
Ni175      Ni  0.13656749  0.80439596  0.54346229     1.26300
O176        O  0.19443687  0.83153860  0.59048243    -0.66100
O177        O  0.11474253  0.82456652  0.50618763    -0.78400
C178        C  0.15819621  0.76332475  0.49346786     0.85100
O179        O  0.13651969  0.77403021  0.50787016    -0.65600
Ni180      Ni  0.10512115  0.85025442  0.59865404     1.27400
Ni181      Ni  0.16222326  0.81665786  0.61681955     1.26100
H182        H  0.14651788  0.77230560  0.59584095     0.39600
O183        O  0.38239925  0.60563372  0.88115626    -0.80300
O184        O  0.36534071  0.68966192  0.02101393    -0.65000
O185        O  0.36138632  0.62759029  0.95196505    -1.11600
C186        C  0.29970774  0.68592645  0.87945370     1.06500
O187        O  0.32057013  0.69871153  0.01922708    -0.78200
O188        O  0.28865026  0.66579809  0.97582450    -0.65800
Ni189      Ni  0.39559717  0.61169781  0.93426397     1.34900
C190        C  0.28897411  0.64058002  0.96507667     0.85300
O191        O  0.38407189  0.63842410  0.02519543    -0.78800
O192        O  0.41282840  0.61471419  0.98600662    -0.89100
C193        C  0.34431914  0.70220963  0.03419123     0.84800
O194        O  0.41174985  0.64559674  0.91722089    -0.67300
O195        O  0.29657171  0.69924850  0.91150015    -0.86600
C196        C  0.41388261  0.66785872  0.93669592     0.85700
C197        C  0.40564981  0.62385503  0.01987649     1.07200
H198        H  0.35443969  0.69057495  0.93396061     0.39000
O199        O  0.34274330  0.67742125  0.94742752    -1.09200
O200        O  0.30644563  0.63083484  0.94054510    -0.65900
Ni201      Ni  0.33851762  0.64575771  0.91369777     1.26300
O202        O  0.39769696  0.67330278  0.96533595    -0.66100
O203        O  0.31567524  0.66492660  0.87580488    -0.78400
C204        C  0.35837575  0.60190933  0.86674973     0.85100
O205        O  0.33696838  0.61367699  0.88074545    -0.65600
Ni206      Ni  0.31039433  0.69737924  0.96429241     1.27400
Ni207      Ni  0.36382249  0.65846544  0.98679276     1.26100
H208        H  0.35111659  0.61306269  0.96494570     0.39600
O209        O  0.10336130  0.35414859  0.38390608    -0.80300
O210        O  0.12298844  0.26870778  0.51671841    -0.65000
O211        O  0.12515507  0.33459031  0.45549453    -1.11600
C212        C  0.18933131  0.28302419  0.37867774     1.06500
O213        O  0.16828139  0.26387730  0.51746386    -0.78200
O214        O  0.19984681  0.29918715  0.47636857    -0.65800
Ni215      Ni  0.09190154  0.35225456  0.43869353     1.34900
C216        C  0.19824109  0.32502159  0.46924607     0.85300
O217        O  0.10043804  0.31851385  0.52545451    -0.78800
O218        O  0.07825413  0.35243761  0.49227136    -0.89100
C219        C  0.14468601  0.25884723  0.53234755     0.84800
O220        O  0.07020211  0.32015157  0.42714052    -0.67300
O221        O  0.19252954  0.26776721  0.40909582    -0.86600
C222        C  0.07120165  0.29532009  0.43936477     0.85700
C223        C  0.08317816  0.33846115  0.52364435     1.07200
H224        H  0.13565279  0.27358557  0.43054377     0.39000
O225        O  0.14626244  0.28651364  0.44619643    -1.09200
O226        O  0.18020084  0.33533817  0.44603780    -0.65900
Ni227      Ni  0.14944139  0.32013264  0.41635053     1.26300
O228        O  0.09086983  0.28645525  0.46098680    -0.66100
O229        O  0.17386962  0.30448861  0.37761167    -0.78400
C230        C  0.12669308  0.36266764  0.37139657     0.85100
O231        O  0.14909137  0.35390995  0.38676742    -0.65600
Ni232      Ni  0.17895763  0.26730124  0.46241181     1.27400
Ni233      Ni  0.12313276  0.30177769  0.48621379     1.26100
H234        H  0.13491569  0.34823268  0.47104474     0.39600
O235        O  0.32090090  0.20519298  0.01349551    -0.80300
O236        O  0.32841323  0.12097552  0.15490405    -0.65000
O237        O  0.33709583  0.18454906  0.08856730    -1.11600
C238        C  0.39985577  0.12505024  0.02007748     1.06500
O239        O  0.37410820  0.11810303  0.15796873    -0.78200
O240        O  0.41150668  0.14479652  0.11313819    -0.65800
Ni241      Ni  0.30699441  0.20499703  0.06720079     1.34900
C242        C  0.41115769  0.17016162  0.10309321     0.85300
O243        O  0.30684677  0.17321078  0.15698091    -0.78800
O244        O  0.29102370  0.20778304  0.11877159    -0.89100
C245        C  0.35034860  0.11134721  0.17083525     0.84800
O246        O  0.28435955  0.17409292  0.05453392    -0.67300
O247        O  0.40039092  0.11001305  0.05110775    -0.86600
C248        C  0.28248140  0.14925912  0.06678510     0.85700
C249        C  0.29234312  0.19516777  0.15186427     1.07200
H250        H  0.34425391  0.12188179  0.06937817     0.39000
O251        O  0.35492697  0.13489957  0.08478945    -1.09200
O252        O  0.39218934  0.18053719  0.08187987    -0.65900
Ni253      Ni  0.36129350  0.16635923  0.05274580     1.26300
O254        O  0.29895825  0.13916669  0.09256077    -0.66100
O255        O  0.38558369  0.14728059  0.01766689    -0.78400
C256        C  0.34577243  0.20890385  0.00232219     0.85100
O257        O  0.36570338  0.19822260  0.02100175    -0.65600
Ni258      Ni  0.38623244  0.11487023  0.10405738     1.27400
Ni259      Ni  0.33080177  0.15314567  0.12146518     1.26100
H260        H  0.34748994  0.19764036  0.10416860     0.39600
O261        O  0.52719193  0.56806573  0.27437414    -0.80300
O262        O  0.61544324  0.57275846  0.40930276    -0.65000
O263        O  0.55039036  0.58520942  0.34721160    -1.11600
C264        C  0.61023796  0.64468081  0.27530792     1.06500
O265        O  0.62010263  0.61828137  0.41366984    -0.78200
O266        O  0.59112854  0.65651175  0.37260757    -0.65800
Ni267      Ni  0.52790051  0.55564878  0.32849528     1.34900
C268        C  0.56668509  0.65832465  0.35927815     0.85300
O269        O  0.56300128  0.55337910  0.41508828    -0.78800
O270        O  0.52550569  0.54079092  0.38050974    -0.89100
C271        C  0.62679158  0.59392523  0.42473663     0.84800
O272        O  0.55710329  0.53059787  0.31577343    -0.67300
O273        O  0.62379190  0.64730799  0.30756676    -0.86600
C274        C  0.58245261  0.52810298  0.32526669     0.85700
C275        C  0.54015570  0.54024447  0.41177938     1.07200
H276        H  0.61328490  0.58970985  0.32558308     0.39000
O277        O  0.60048087  0.60073216  0.34095678    -1.09200
O278        O  0.55661655  0.64050109  0.33572212    -0.65900
Ni279      Ni  0.56895146  0.60751602  0.30901820     1.26300
O280        O  0.59446960  0.54502711  0.34846460    -0.66100
O281        O  0.58888566  0.62945270  0.27172792    -0.78400
C282        C  0.52354599  0.59276440  0.26221895     0.85100
O283        O  0.53671316  0.61257415  0.27766286    -0.65600
Ni284      Ni  0.62095313  0.63175141  0.36011273     1.27400
Ni285      Ni  0.58243286  0.57716786  0.37844441     1.26100
H286        H  0.53844260  0.59694055  0.36292263     0.39600
O287        O  0.36948945  0.35272312  0.62300723    -0.80300
O288        O  0.45159247  0.35697138  0.76659741    -0.65000
O289        O  0.39105915  0.36733652  0.69662739    -1.11600
C290        C  0.45399038  0.42527016  0.62721373     1.06500
O291        O  0.46659584  0.40016830  0.76516933    -0.78200
O292        O  0.43840908  0.43730274  0.72202338    -0.65800
Ni293      Ni  0.37489050  0.33501850  0.67374416     1.34900
C294        C  0.41260502  0.43898922  0.71559237     0.85300
O295        O  0.39910012  0.34117783  0.76713937    -0.78800
O296        O  0.37702794  0.31439858  0.72307158    -0.89100
C297        C  0.46579384  0.37638001  0.78122979     0.84800
O298        O  0.40909742  0.31963736  0.65516447    -0.67300
O299        O  0.46972322  0.42384537  0.65725461    -0.86600
C300        C  0.43038645  0.31475372  0.67592756     0.85700
C301        C  0.38436853  0.32025323  0.75838729     1.07200
H302        H  0.45317309  0.36920637  0.67781445     0.39000
O303        O  0.44188615  0.38187212  0.69302494    -1.09200
O304        O  0.39953763  0.42235564  0.69314713    -0.65900
Ni305      Ni  0.41020606  0.39099109  0.66121529     1.26300
O306        O  0.43463999  0.32737482  0.70830082    -0.66100
O307        O  0.43007402  0.41436786  0.62543799    -0.78400
C308        C  0.36344578  0.37800597  0.61594051     0.85100
O309        O  0.37719432  0.39769049  0.63127894    -0.65600
Ni310      Ni  0.46630720  0.41063125  0.71017917     1.27400
Ni311      Ni  0.42127817  0.36147168  0.73134481     1.26100
H312        H  0.37672242  0.37754563  0.71030610     0.39600
O313        O  0.87325221  0.10704973  0.37981410    -0.80300
O314        O  0.85979312  0.18802566  0.52634416    -0.65000
O315        O  0.85345719  0.12947708  0.45096486    -1.11600
C316        C  0.79951071  0.19703578  0.38196734     1.06500
O317        O  0.81535891  0.19780103  0.52437646    -0.78200
O318        O  0.78164004  0.17208277  0.47292279    -0.65800
Ni319      Ni  0.88738753  0.11384737  0.43203452     1.34900
C320        C  0.78043388  0.14784770  0.45845811     0.85300
O321        O  0.87635750  0.13548034  0.52540547    -0.78800
O322        O  0.90583096  0.11666574  0.48253909    -0.89100
C323        C  0.83886415  0.20025065  0.54067732     0.84800
O324        O  0.90136526  0.14884267  0.41529651    -0.67300
O325        O  0.79646740  0.20876401  0.41535994    -0.86600
C326        C  0.90574812  0.16941338  0.43768140     0.85700
C327        C  0.89865758  0.12261865  0.51765351     1.07200
H328        H  0.85085231  0.19356333  0.43938821     0.39000
O329        O  0.83818289  0.18047758  0.45106741    -1.09200
O330        O  0.79902182  0.13748290  0.43639976    -0.65900
Ni331      Ni  0.83282280  0.15117610  0.41367808     1.26300
O332        O  0.89207920  0.17280123  0.46943752    -0.66100
O333        O  0.81254052  0.17415179  0.37714019    -0.78400
C334        C  0.84910776  0.10592464  0.36493853     0.85100
O335        O  0.82928963  0.12093372  0.37736560    -0.65600
Ni336      Ni  0.80721298  0.20180687  0.46883248     1.27400
Ni337      Ni  0.85732316  0.15853048  0.48898433     1.26100
H338        H  0.84219697  0.11482609  0.46182612     0.39600
O339        O  0.65975298  0.25346618  0.02924159    -0.80300
O340        O  0.65261421  0.34952789  0.15996714    -0.65000
O341        O  0.64316795  0.28635720  0.09294556    -1.11600
C342        C  0.58528209  0.34598831  0.02103549     1.06500
O343        O  0.60737101  0.35762577  0.16141404    -0.78200
O344        O  0.57648971  0.31985012  0.12169458    -0.65800
Ni345      Ni  0.67599873  0.26669437  0.07752741     1.34900
C346        C  0.57368847  0.29871745  0.09977104     0.85300
O347        O  0.66898859  0.29690431  0.16565160    -0.78800
O348        O  0.69707143  0.27503199  0.12455838    -0.89100
C349        C  0.63165610  0.36143339  0.17494656     0.84800
O350        O  0.68945367  0.29891695  0.05200876    -0.67300
O351        O  0.57757536  0.35336278  0.05556069    -0.86600
C352        C  0.69474934  0.32215975  0.06819715     0.85700
C353        C  0.69060890  0.28272129  0.15914655     1.07200
H354        H  0.63892788  0.35204797  0.07752363     0.39000
O355        O  0.62787257  0.33753831  0.08915540    -1.09200
O356        O  0.58938247  0.29409685  0.07040392    -0.65900
Ni357      Ni  0.62467064  0.30797410  0.05254393     1.26300
O358        O  0.68289451  0.32962902  0.10035424    -0.66100
O359        O  0.60642524  0.33085419  0.01473538    -0.78400
C360        C  0.63869526  0.25869815  0.00797350     0.85100
O361        O  0.62242735  0.27867517  0.01506243    -0.65600
Ni362      Ni  0.59418242  0.35391272  0.10771693     1.27400
Ni363      Ni  0.64892003  0.31762532  0.12703220     1.26100
H364        H  0.63054352  0.27354601  0.10532870     0.39600
O365        O  0.11622479  0.61610183  0.12014461    -0.80300
O366        O  0.03512493  0.61675297  0.25863845    -0.65000
O367        O  0.09777685  0.60228040  0.19489236    -1.11600
C368        C  0.03557306  0.54128217  0.12859868     1.06500
O369        O  0.02419667  0.57251420  0.26469651    -0.78200
O370        O  0.05188115  0.53279379  0.22452168    -0.65800
Ni371      Ni  0.11693459  0.63289118  0.17174488     1.34900
C372        C  0.07745295  0.53004972  0.21702829     0.85300
O373        O  0.08727857  0.63360354  0.26149709    -0.78800
O374        O  0.11948289  0.65212589  0.22204034    -0.89100
C375        C  0.02248413  0.59758975  0.27623113     0.84800
O376        O  0.08599361  0.65514663  0.15595119    -0.67300
O377        O  0.02032415  0.54316480  0.15919418    -0.86600
C378        C  0.06207486  0.65754910  0.17074800     0.85700
C379        C  0.10697966  0.65047850  0.25527401     1.07200
H380        H  0.03582961  0.59825357  0.17406741     0.39000
O381        O  0.04745118  0.58688935  0.19078595    -1.09200
O382        O  0.09045975  0.54598729  0.19331110    -0.65900
Ni383      Ni  0.07917983  0.57715210  0.16020101     1.26300
O384        O  0.05359757  0.64196810  0.19823365    -0.66100
O385        O  0.05931226  0.55259546  0.12561773    -0.78400
C386        C  0.12325940  0.59129032  0.11197526     0.85100
O387        O  0.11186125  0.57102080  0.12951501    -0.65600
Ni388      Ni  0.02378690  0.55884173  0.21095063     1.27400
Ni389      Ni  0.06669749  0.61030992  0.22686554     1.26100
H390        H  0.11104297  0.59210161  0.21065569     0.39600
O391        O  0.95839822  0.40134557  0.77357810    -0.80300
O392        O  0.87441021  0.39437693  0.91095048    -0.65000
O393        O  0.93826010  0.38278642  0.84692229    -1.11600
C394        C  0.88004497  0.31937439  0.77959898     1.06500
O395        O  0.87015573  0.34900432  0.91727882    -0.78200
O396        O  0.90170798  0.31170830  0.87694305    -0.65800
Ni397      Ni  0.96013123  0.41263762  0.82814283     1.34900
C398        C  0.92571766  0.31055127  0.86179631     0.85300
O399        O  0.92652354  0.41391787  0.91526004    -0.78800
O400        O  0.96428804  0.42620758  0.88088118    -0.89100
C401        C  0.86314067  0.37355425  0.92708809     0.84800
O402        O  0.93094039  0.43839645  0.81866409    -0.67300
O403        O  0.86764899  0.31720138  0.81268776    -0.86600
C404        C  0.90569433  0.43965122  0.82868302     0.85700
C405        C  0.94956925  0.42660895  0.91212776     1.07200
H406        H  0.87499865  0.37617163  0.82838072     0.39000
O407        O  0.88862884  0.36569795  0.84309322    -1.09200
O408        O  0.93400310  0.32755615  0.83588324    -0.65900
Ni409      Ni  0.91958927  0.35982224  0.80959412     1.26300
O410        O  0.89384774  0.42153834  0.84995988    -0.66100
O411        O  0.89972898  0.33650089  0.77381356    -0.78400
C412        C  0.96230364  0.37710914  0.75995784     0.85100
O413        O  0.95107308  0.35636420  0.77626467    -0.65600
Ni414      Ni  0.87006980  0.33417927  0.86422654     1.27400
Ni415      Ni  0.90689819  0.38990306  0.87943867     1.26100
H416        H  0.95068988  0.37147420  0.86226582     0.39600
C417        C  0.02562805  0.48958971  0.04453935    -0.11300
C418        C  0.99776776  0.49450246  0.03511020     0.11300
C419        C  0.98256224  0.51487789  0.05597044    -0.03100
C420        C  0.99615124  0.53025416  0.08532670    -0.05900
C421        C  0.02411778  0.52556766  0.09479200    -0.16600
C422        C  0.03922551  0.50482430  0.07420781     0.02300
C423        C  0.98494341  0.47761370  0.00352261     0.12200
C424        C  0.95200383  0.51991945  0.04782253     0.62800
H425        H  0.98485329  0.54596691  0.10164107     0.12200
C426        C  0.06915465  0.49812150  0.08420695     0.55000
H427        H  0.03661293  0.47359058  0.02835520     0.08000
C428        C  0.98787829  0.48462103  0.96331466    -0.05800
C429        C  0.97519222  0.46770722  0.93497464    -0.06500
C430        C  0.96010522  0.44385509  0.94529846    -0.16100
C431        C  0.95721733  0.43683917  0.98581008    -0.01700
C432        C  0.96996772  0.45391760  0.01425922    -0.09200
C433        C  0.00490227  0.50945060  0.95027841     0.65000
H434        H  0.97736091  0.47289383  0.90408553     0.10500
C435        C  0.94140003  0.41136360  0.99920345     0.63400
H436        H  0.96834762  0.44899164  0.04534666     0.07900
F437        F  0.08578981  0.52029199  0.07420558    -0.19600
F438        F  0.07862589  0.47500018  0.06393027    -0.15800
F439        F  0.07170807  0.49277767  0.12415235    -0.19300
F440        F  0.93717967  0.49616927  0.05612929    -0.22700
F441        F  0.94803222  0.52687547  0.00866675    -0.24200
F442        F  0.94140820  0.54124559  0.07075465    -0.18200
F443        F  0.95161837  0.38796393  0.98044689    -0.20600
F444        F  0.91362347  0.41457578  0.99041076    -0.21800
F445        F  0.94369815  0.40718306  0.03950705    -0.19000
F446        F  0.00396561  0.51317904  0.90978083    -0.19100
F447        F  0.03223999  0.50554721  0.96101438    -0.22900
F448        F  0.99506065  0.53342697  0.96781970    -0.24500
C449        C  0.81501352  0.36017166  0.01296283    -0.11300
C450        C  0.79141758  0.37459735  0.00010735     0.11300
C451        C  0.79378261  0.39407641  0.96906468    -0.03100
C452        C  0.81886524  0.39524281  0.94786534    -0.05900
C453        C  0.84109537  0.37743733  0.95698353    -0.16600
C454        C  0.83995723  0.36117337  0.99174202     0.02300
C455        C  0.76416861  0.36436703  0.01423274     0.12200
C456        C  0.76956779  0.41252395  0.95750183     0.62800
H457        H  0.82044182  0.40838450  0.92205854     0.12200
C458        C  0.86419383  0.34340247  0.00508784     0.55000
H459        H  0.81296977  0.34586029  0.03743376     0.08000
C460        C  0.75218512  0.34064529  0.99671539    -0.05800
C461        C  0.72869721  0.32898946  0.01420172    -0.06500
C462        C  0.71683582  0.33960309  0.04917432    -0.16100
C463        C  0.72769213  0.36481227  0.06498342    -0.01700
C464        C  0.75149948  0.37654445  0.04727842    -0.09200
C465        C  0.76493352  0.32669933  0.96059821     0.65000
H466        H  0.72017816  0.31042592  0.00110088     0.10500
C467        C  0.71476162  0.37933835  0.10030151     0.63400
H468        H  0.76101530  0.39483399  0.05987165     0.07900
F469        F  0.86508025  0.31921389  0.98314164    -0.19600
F470        F  0.86184694  0.33637615  0.04454142    -0.15800
F471        F  0.88877011  0.35765814  0.00039920    -0.19300
F472        F  0.76147153  0.42820752  0.98969523    -0.22700
F473        F  0.74747072  0.39660412  0.94510804    -0.24200
F474        F  0.77646108  0.43050319  0.92724217    -0.18200
F475        F  0.71804713  0.36324017  0.13375809    -0.20600
F476        F  0.68690132  0.38397456  0.09336216    -0.21800
F477        F  0.72684199  0.40485179  0.10752846    -0.19000
F478        F  0.74855889  0.30543319  0.94628848    -0.19100
F479        F  0.79044941  0.31554320  0.97023737    -0.22900
F480        F  0.76823096  0.34571282  0.93050345    -0.24500
C481        C  0.85101896  0.25952490  0.71705901    -0.11300
C482        C  0.85998861  0.26725284  0.67947499     0.11300
C483        C  0.87445770  0.29245392  0.67439472    -0.03100
C484        C  0.87973067  0.30902692  0.70770477    -0.05900
C485        C  0.87158111  0.30105450  0.74597816    -0.16600
C486        C  0.85713666  0.27545422  0.75076997     0.02300
C487        C  0.85366530  0.24856844  0.64581104     0.12200
C488        C  0.88450086  0.30171695  0.63399952     0.62800
H489        H  0.89050114  0.32848816  0.70389651     0.12200
C490        C  0.84903200  0.26395876  0.79089239     0.55000
H491        H  0.83940958  0.24044798  0.71972249     0.08000
C492        C  0.86866483  0.22374979  0.63882392    -0.05800
C493        C  0.86264138  0.20826851  0.60465300    -0.06500
C494        C  0.84200976  0.21662879  0.57773429    -0.16100
C495        C  0.82632202  0.24106298  0.58582214    -0.01700
C496        C  0.83230540  0.25631972  0.62016313    -0.09200
C497        C  0.89097541  0.21375089  0.66719712     0.65000
H498        H  0.87414012  0.18939331  0.59864523     0.10500
C499        C  0.80413070  0.25190019  0.55792340     0.63400
H500        H  0.82066015  0.27495411  0.62705227     0.07900
F501        F  0.87216349  0.26218856  0.81478193    -0.19600
F502        F  0.83791217  0.23757867  0.78815491    -0.15800
F503        F  0.82934922  0.28089675  0.80827643    -0.19300
F504        F  0.86212156  0.30749003  0.60989875    -0.22700
F505        F  0.90035065  0.28098971  0.61692234    -0.24200
F506        F  0.90056513  0.32539834  0.63626353    -0.18200
F507        F  0.78222265  0.23355761  0.55667644    -0.20600
F508        F  0.81505068  0.25510990  0.52049263    -0.21800
F509        F  0.79382681  0.27743281  0.56982708    -0.19000
F510        F  0.90472688  0.19054244  0.65298477    -0.19100
F511        F  0.87917228  0.20679302  0.70296541    -0.22900
F512        F  0.91030342  0.23442019  0.67317826    -0.24500
C513        C  0.75205589  0.25699275  0.21998377    -0.11300
C514        C  0.73883327  0.24958760  0.25513251     0.11300
C515        C  0.71086879  0.25729205  0.26119527    -0.03100
C516        C  0.69593166  0.26878215  0.22939747    -0.05900
C517        C  0.70855763  0.27410524  0.19278013    -0.16600
C518        C  0.73761126  0.26998108  0.18897680     0.02300
C519        C  0.75546484  0.23535364  0.28595124     0.12200
C520        C  0.69714745  0.25393262  0.30123949     0.62800
H521        H  0.67406898  0.27318953  0.23274986     0.12200
C522        C  0.75373429  0.28021725  0.15339873     0.55000
H523        H  0.77391521  0.25235982  0.21698288     0.08000
C524        C  0.75735105  0.20605273  0.28840358    -0.05800
C525        C  0.77266220  0.19419028  0.31957229    -0.06500
C526        C  0.78647246  0.21074927  0.34740920    -0.16100
C527        C  0.78658573  0.24006908  0.34253829    -0.01700
C528        C  0.77072081  0.25182606  0.31202137    -0.09200
C529        C  0.74347162  0.18749378  0.25806334     0.65000
H530        H  0.77336578  0.17185482  0.32303040     0.10500
C531        C  0.80370238  0.25905606  0.36873472     0.63400
H532        H  0.76976286  0.27415967  0.30853206     0.07900
F533        F  0.78193507  0.28054942  0.16075626    -0.19600
F534        F  0.74570378  0.30704809  0.14419840    -0.15800
F535        F  0.74913670  0.26308528  0.12135714    -0.19300
F536        F  0.71154420  0.26901291  0.32921493    -0.22700
F537        F  0.69701943  0.22635642  0.31229365    -0.24200
F538        F  0.67005408  0.26339979  0.30096681    -0.18200
F539        F  0.80620608  0.28530943  0.35257152    -0.20600
F540        F  0.83011767  0.24831696  0.37336787    -0.21800
F541        F  0.79125189  0.26178700  0.40524644    -0.19000
F542        F  0.74875428  0.15967298  0.26515838    -0.19100
F543        F  0.75323931  0.19375901  0.22080774    -0.22900
F544        F  0.71515553  0.19146668  0.25873126    -0.24500
C545        C  0.55843020  0.37180246  0.92192334    -0.11300
C546        C  0.53077248  0.36312677  0.92390396     0.11300
C547        C  0.52108702  0.34931082  0.95801352    -0.03100
C548        C  0.53950742  0.34511352  0.98956506    -0.05900
C549        C  0.56727936  0.35333955  0.98738502    -0.16600
C550        C  0.57700285  0.36719968  0.95329651     0.02300
C551        C  0.51309411  0.36694077  0.88849469     0.12200
C552        C  0.49171059  0.33833244  0.96065468     0.62800
H553        H  0.53262011  0.33435742  0.01581659     0.12200
C554        C  0.60655208  0.37759095  0.95039327     0.55000
H555        H  0.56543827  0.38185387  0.89518074     0.08000
C556        C  0.50041241  0.39261740  0.87914627    -0.05800
C557        C  0.48480754  0.39461319  0.84415841    -0.06500
C558        C  0.48136069  0.37180438  0.81863523    -0.16100
C559        C  0.49399883  0.34599112  0.82846866    -0.01700
C560        C  0.51001564  0.34427086  0.86303746    -0.09200
C561        C  0.50325573  0.41769803  0.90606630     0.65000
H562        H  0.47503843  0.41414410  0.83650869     0.10500
C563        C  0.49150405  0.32051496  0.80229069     0.63400
H564        H  0.52036489  0.32503210  0.87071500     0.07900
F565        F  0.61247392  0.39431048  0.98249144    -0.19600
F566        F  0.61074645  0.39301677  0.91647380    -0.15800
F567        F  0.62475082  0.35539272  0.94973948    -0.19300
F568        F  0.48779442  0.31779000  0.93274353    -0.22700
F569        F  0.47293969  0.35953494  0.95403643    -0.24200
F570        F  0.48618878  0.32707913  0.99737461    -0.18200
F571        F  0.49942382  0.32710689  0.76431705    -0.20600
F572        F  0.46445979  0.31121576  0.80224291    -0.21800
F573        F  0.50819738  0.29889704  0.81510076    -0.19000
F574        F  0.48909340  0.44055256  0.89153509    -0.19100
F575        F  0.53079296  0.42486501  0.90983610    -0.22900
F576        F  0.49273362  0.41161871  0.94294718    -0.24500
C577        C  0.61605548  0.40330076  0.26661361    -0.11300
C578        C  0.62993097  0.42791188  0.25719139     0.11300
C579        C  0.65010455  0.42769936  0.22696151    -0.03100
C580        C  0.65227387  0.40409913  0.20256774    -0.05900
C581        C  0.63498750  0.38109819  0.20812546    -0.16600
C582        C  0.61824687  0.37967916  0.24236849     0.02300
C583        C  0.61914521  0.45434739  0.27397770     0.12200
C584        C  0.66818025  0.45280370  0.21957985     0.62800
H585        H  0.66578401  0.40440205  0.17708044     0.12200
C586        C  0.60229291  0.35361951  0.25270617     0.55000
H587        H  0.60149404  0.40356204  0.29090133     0.08000
C588        C  0.59614840  0.46776660  0.25641926    -0.05800
C589        C  0.58645927  0.49261547  0.27294470    -0.06500
C590        C  0.59778486  0.50397323  0.30766040    -0.16100
C591        C  0.62106390  0.49049476  0.32527770    -0.01700
C592        C  0.63140457  0.46584817  0.30776671    -0.09200
C593        C  0.58116838  0.45541931  0.22097984     0.65000
H594        H  0.56907454  0.50301756  0.25916659     0.10500
C595        C  0.63463401  0.50136412  0.36265189     0.63400
H596        H  0.64891263  0.45504273  0.32061703     0.07900
F597        F  0.58024917  0.35029246  0.22717207    -0.19600
F598        F  0.59196687  0.35477508  0.29076675    -0.15800
F599        F  0.61960400  0.33074006  0.25007890    -0.19300
F600        F  0.68241348  0.45936862  0.25373809    -0.22700
F601        F  0.65204929  0.47525261  0.20851529    -0.24200
F602        F  0.68738671  0.44785313  0.19008900    -0.18200
F603        F  0.61526174  0.50329170  0.39256617    -0.20600
F604        F  0.64591843  0.52721352  0.35557982    -0.21800
F605        F  0.65574006  0.48408799  0.37560096    -0.19000
F606        F  0.55981422  0.47232430  0.20791110    -0.19100
F607        F  0.56986206  0.43011116  0.23112217    -0.22900
F608        F  0.59938042  0.45169833  0.18999822    -0.24500
C609        C  0.46432364  0.47955798  0.54772726    -0.11300
C610        C  0.49059693  0.47199595  0.53365421     0.11300
C611        C  0.50422333  0.44835212  0.54913508    -0.03100
C612        C  0.49092550  0.43295010  0.57865333    -0.05900
C613        C  0.46468653  0.44051679  0.59285930    -0.16600
C614        C  0.45092451  0.46402752  0.57713060     0.02300
C615        C  0.50335042  0.48921609  0.50245596     0.12200
C616        C  0.53293765  0.43989301  0.53522969     0.62800
H617        H  0.50118308  0.41509887  0.59157428     0.12200
C618        C  0.42282501  0.47325963  0.59247959     0.55000
H619        H  0.45448748  0.49788266  0.53553036     0.08000
C620        C  0.49663439  0.48541559  0.46233408    -0.05800
C621        C  0.51026505  0.50166793  0.43414638    -0.06500
C622        C  0.52925594  0.52266959  0.44467462    -0.16100
C623        C  0.53527387  0.52692290  0.48534997    -0.01700
C624        C  0.52231289  0.50976970  0.51349358    -0.09200
C625        C  0.47465127  0.46472945  0.44946628     0.65000
H626        H  0.50560793  0.49827813  0.40328216     0.10500
C627        C  0.55433353  0.54985312  0.49947957     0.63400
H628        H  0.52665636  0.51236954  0.54463591     0.07900
F629        F  0.41391651  0.49757355  0.57473928    -0.19600
F630        F  0.42430536  0.47783502  0.63273700    -0.15800
F631        F  0.40334466  0.45300176  0.58486700    -0.19300
F632        F  0.55173211  0.46026731  0.54525484    -0.22700
F633        F  0.53310086  0.43636554  0.49474632    -0.25800
F634        F  0.54159085  0.41522524  0.55225798    -0.18200
F635        F  0.54514563  0.57514115  0.48515245    -0.20600
F636        F  0.58101617  0.54483007  0.48653177    -0.21800
F637        F  0.55505053  0.55162293  0.54025878    -0.19000
F638        F  0.47190010  0.46366374  0.40882702    -0.19100
F639        F  0.44930357  0.47234941  0.46505161    -0.22900
F640        F  0.48137943  0.43839486  0.46256889    -0.24500
C641        C  0.45618563  0.23279085  0.12667663    -0.11300
C642        C  0.48227678  0.22228375  0.11649281     0.11300
C643        C  0.48549167  0.19364310  0.10835826    -0.03100
C644        C  0.46171827  0.17690318  0.10680264    -0.05900
C645        C  0.43514361  0.18793990  0.11333996    -0.16600
C646        C  0.43239440  0.21605730  0.12549736     0.02300
C647        C  0.50547114  0.24217650  0.11228514     0.12200
C648        C  0.51383078  0.18101561  0.10064682     0.62800
H649        H  0.46360201  0.15528814  0.09839023     0.12200
C650        C  0.40476783  0.22837039  0.13792183     0.55000
H651        H  0.45448404  0.25461784  0.13401410     0.08000
C652        C  0.51047749  0.25589177  0.07609054    -0.05800
C653        C  0.53336439  0.27368501  0.07335806    -0.06500
C654        C  0.55017375  0.27954432  0.10615857    -0.16100
C655        C  0.54417990  0.26701566  0.14301879    -0.01700
C656        C  0.52201572  0.24810154  0.14526357    -0.09200
C657        C  0.49100513  0.25267106  0.04107720     0.65000
H658        H  0.53787363  0.28391436  0.04565991     0.10500
C659        C  0.56137024  0.27310494  0.17947561     0.63400
H660        H  0.51724245  0.23787611  0.17286139     0.07900
F661        F  0.38761228  0.23128760  0.10560605    -0.19600
F662        F  0.40785891  0.25434733  0.15485875    -0.15800
F663        F  0.39237831  0.21128117  0.16545452    -0.19300
F664        F  0.53079751  0.18553830  0.13286705    -0.22700
F665        F  0.52566115  0.19297258  0.06771604    -0.24200
F666        F  0.51236595  0.15266159  0.09431497    -0.18200
F667        F  0.55828617  0.30066496  0.18997385    -0.20600
F668        F  0.58897046  0.26760951  0.17186482    -0.21800
F669        F  0.55335937  0.25708174  0.21134165    -0.19000
F670        F  0.50020713  0.26712276  0.00837191    -0.19100
F671        F  0.46512687  0.26283519  0.05100218    -0.22900
F672        F  0.48861715  0.22507192  0.03057795    -0.24500
C673        C  0.37860433  0.25605101  0.92537971    -0.11300
C674        C  0.35967043  0.25344444  0.89436784     0.11300
C675        C  0.33667780  0.23563758  0.89811879    -0.03100
C676        C  0.33271022  0.22174422  0.93410730    -0.05900
C677        C  0.35146191  0.22453238  0.96560394    -0.16600
C678        C  0.37498030  0.24194203  0.96121939     0.02300
C679        C  0.36424529  0.27040960  0.85868674     0.12200
C680        C  0.31692962  0.23082737  0.86390555     0.62800
H681        H  0.31521267  0.20799016  0.93757097     0.12200
C682        C  0.39586722  0.24640542  0.99422020     0.55000
H683        H  0.39625310  0.26952662  0.92121523     0.08000
C684        C  0.35633498  0.29869722  0.85727324    -0.05800
C685        C  0.36251503  0.31403387  0.82323458    -0.06500
C686        C  0.37601528  0.30184952  0.79092123    -0.16100
C687        C  0.38348242  0.27337889  0.79211941    -0.01700
C688        C  0.37759539  0.25812375  0.82640287    -0.09200
C689        C  0.34190695  0.31267494  0.89186591     0.65000
H690        H  0.35726760  0.33589293  0.82179245     0.10500
C691        C  0.39803999  0.25932081  0.75781558     0.63400
H692        H  0.38351665  0.23646778  0.82848814     0.07900
F693        F  0.41398970  0.26777108  0.98573546    -0.19600
F694        F  0.41135729  0.22252127  0.99978650    -0.15800
F695        F  0.38227844  0.25322730  0.02880434    -0.19300
F696        F  0.33065187  0.21683627  0.83409099    -0.22700
F697        F  0.30719106  0.25584237  0.84940953    -0.24200
F698        F  0.29432061  0.21514637  0.87507328    -0.18200
F699        F  0.40589955  0.23239090  0.76677899    -0.20600
F700        F  0.42160761  0.27387599  0.74783211    -0.21800
F701        F  0.38033766  0.25837065  0.72581628    -0.19000
F702        F  0.33382930  0.33954271  0.88292317    -0.19100
F703        F  0.35961417  0.31370939  0.92388711    -0.22900
F704        F  0.31849854  0.29797890  0.90219110    -0.24500
C705        C  0.00366518  0.26394757  0.39956054    -0.11300
C706        C  0.00003287  0.24203955  0.42605853     0.11300
C707        C  0.02125781  0.23530291  0.45313472    -0.03100
C708        C  0.04448951  0.25271573  0.45544275    -0.05900
C709        C  0.04760006  0.27608732  0.43074399    -0.16600
C710        C  0.02731845  0.28095048  0.40084305     0.02300
C711        C  0.97391012  0.22605832  0.42465115     0.12200
C712        C  0.01928392  0.20975716  0.47939900     0.62800
H713        H  0.06009261  0.24844822  0.47757495     0.12200
C714        C  0.03029258  0.30358395  0.36999742     0.55000
H715        H  0.98741111  0.26794033  0.37824050     0.08000
C716        C  0.95102339  0.23309612  0.44855526    -0.05800
C717        C  0.92859494  0.21466493  0.45020523    -0.06500
C718        C  0.92825143  0.18963270  0.42852970    -0.16100
C719        C  0.95041298  0.18399713  0.40184188    -0.01700
C720        C  0.97280093  0.20258606  0.40041445    -0.09200
C721        C  0.95037376  0.26000326  0.47207495     0.65000
H722        H  0.91134305  0.21950530  0.46939908     0.10500
C723        C  0.95152479  0.15810474  0.37617845     0.63400
H724        H  0.99044296  0.19831173  0.38165471     0.07900
F725        F  0.02577164  0.32928974  0.38702921    -0.19600
F726        F  0.01142430  0.30047132  0.33952783    -0.15800
F727        F  0.05650606  0.30254150  0.35367751    -0.19300
F728        F  0.01664157  0.18625174  0.45628907    -0.22700
F729        F  0.99656333  0.21177039  0.50397753    -0.24200
F730        F  0.04257742  0.20645744  0.50276079    -0.18200
F731        F  0.97477282  0.15750904  0.35235467    -0.20600
F732        F  0.92862739  0.15724216  0.35165612    -0.21800
F733        F  0.95229367  0.13471435  0.39980662    -0.19000
F734        F  0.92612264  0.26288546  0.49344412    -0.19100
F735        F  0.95231447  0.28227352  0.44655481    -0.22900
F736        F  0.97225248  0.26093147  0.49833217    -0.24500
C737        C  0.29098851  0.39454679  0.57996817    -0.11300
C738        C  0.29035550  0.37849612  0.54546202     0.11300
C739        C  0.31541119  0.36793796  0.52971619    -0.03100
C740        C  0.33980001  0.37041503  0.55216744    -0.05900
C741        C  0.33984777  0.38365440  0.58907451    -0.16600
C742        C  0.31544444  0.39721298  0.60238936     0.02300
C743        C  0.26319864  0.36872051  0.53018369     0.12200
C744        C  0.31599642  0.35302027  0.49020938     0.62800
H745        H  0.35873627  0.36059568  0.54214269     0.12200
C746        C  0.31467555  0.41254574  0.64151473     0.55000
H747        H  0.27166173  0.40307140  0.59079601     0.08000
C748        C  0.25002690  0.34553675  0.54742311    -0.05800
C749        C  0.22787398  0.33324643  0.52731605    -0.06500
C750        C  0.21839983  0.34311960  0.49060472    -0.16100
C751        C  0.22971882  0.36817910  0.47549090    -0.01700
C752        C  0.25212830  0.38051824  0.49574391    -0.09200
C753        C  0.25983642  0.33321309  0.58637066     0.65000
H754        H  0.21819381  0.31504331  0.53982622     0.10500
C755        C  0.21908649  0.38145839  0.43782887     0.63400
H756        H  0.26203242  0.39884428  0.48398789     0.07900
F757        F  0.32103370  0.39447516  0.67192552    -0.19600
F758        F  0.28883763  0.42392842  0.64896965    -0.15800
F759        F  0.33368858  0.43390538  0.64106252    -0.19300
F760        F  0.30651390  0.37067350  0.46097491    -0.22700
F761        F  0.29931765  0.32978322  0.49148242    -0.24200
F762        F  0.34247163  0.34459404  0.48009959    -0.18200
F763        F  0.23416707  0.40474506  0.42762933    -0.20600
F764        F  0.19180741  0.38951440  0.44276183    -0.21800
F765        F  0.22096195  0.36279072  0.40705264    -0.19000
F766        F  0.24460610  0.31013364  0.59706759    -0.19100
F767        F  0.25707330  0.35269835  0.61607768    -0.22900
F768        F  0.28727112  0.32520078  0.58353246    -0.24500
C769        C  0.23947801  0.27466965  0.29307637    -0.11300
C770        C  0.22972907  0.24986627  0.27646002     0.11300
C771        C  0.20576952  0.23710313  0.29211354    -0.03100
C772        C  0.19300522  0.24913311  0.32516875    -0.05900
C773        C  0.20292217  0.27366212  0.34210826    -0.16600
C774        C  0.22608417  0.28714272  0.32547636     0.02300
C775        C  0.24598276  0.23665227  0.24438502     0.12200
C776        C  0.19349819  0.21110825  0.27378838     0.62800
H777        H  0.17510368  0.23936974  0.33835662     0.12200
C778        C  0.23674801  0.31418243  0.34231658     0.55000
H779        H  0.25794778  0.28392082  0.28081346     0.08000
C780        C  0.24444786  0.24575615  0.20492509    -0.05800
C781        C  0.25902737  0.23080593  0.17604253    -0.06500
C782        C  0.27620068  0.20782550  0.18527090    -0.16100
C783        C  0.27831674  0.19939910  0.22552509    -0.01700
C784        C  0.26311757  0.21417381  0.25420423    -0.09200
C785        C  0.22852917  0.27184044  0.19349032     0.65000
H786        H  0.25749780  0.23773015  0.14577725     0.10500
C787        C  0.29636918  0.17526817  0.23895445     0.63400
H788        H  0.26423738  0.20819219  0.28496678     0.07900
F789        F  0.21641447  0.33430916  0.33896839    -0.19600
F790        F  0.26001244  0.32342739  0.32253419    -0.15800
F791        F  0.24360791  0.31065623  0.38163755    -0.19300
F792        F  0.21233839  0.18949859  0.27526020    -0.22700
F793        F  0.18655103  0.21628530  0.23489543    -0.24200
F794        F  0.16982905  0.20266473  0.29332098    -0.18200
F795        F  0.29523883  0.17141568  0.27941869    -0.20600
F796        F  0.32368017  0.18023480  0.22916806    -0.21800
F797        F  0.28749306  0.15098350  0.22130572    -0.19000
F798        F  0.22707257  0.27518270  0.15294912    -0.19100
F799        F  0.24171154  0.29479448  0.20905241    -0.22900
F800        F  0.20178428  0.27082581  0.20782093    -0.24500
C801        C  0.06101622  0.35334524  0.62941970    -0.11300
C802        C  0.03231057  0.35586053  0.62438849     0.11300
C803        C  0.02058134  0.35355101  0.58623781    -0.03100
C804        C  0.03822654  0.34854571  0.55416610    -0.05900
C805        C  0.06682072  0.34496181  0.55924218    -0.16600
C806        C  0.07859430  0.34713483  0.59753282     0.02300
C807        C  0.01496050  0.36097066  0.65966977     0.12200
C808        C  0.98953175  0.35563193  0.57947866     0.62800
H809        H  0.02967703  0.34658146  0.52473617     0.12200
C810        C  0.10939778  0.34309018  0.60491462     0.55000
H811        H  0.06943244  0.35565225  0.65887051     0.08000
C812        C  0.00837500  0.33959554  0.68654597    -0.05800
C813        C  0.99119539  0.34594606  0.71874756    -0.06500
C814        C  0.98001333  0.37270567  0.72448712    -0.16100
C815        C  0.98625666  0.39396302  0.69668851    -0.01700
C816        C  0.00445795  0.38775898  0.66553351    -0.09200
C817        C  0.01929914  0.31018662  0.68111173     0.65000
H818        H  0.98652712  0.32986304  0.73997519     0.10500
C819        C  0.97313498  0.42270486  0.69829065     0.63400
H820        H  0.01027149  0.40373600  0.64469790     0.07900
F821        F  0.11652819  0.31558203  0.59899826    -0.19600
F822        F  0.11670576  0.35003047  0.64318666    -0.15800
F823        F  0.12450771  0.35963145  0.57957509    -0.19300
F824        F  0.98003756  0.38167153  0.59004863    -0.22700
F825        F  0.97609672  0.33584797  0.60182094    -0.24200
F826        F  0.98259686  0.35134914  0.54029552    -0.18200
F827        F  0.98296311  0.43718431  0.73060126    -0.20600
F828        F  0.94464979  0.42034771  0.70061398    -0.21800
F829        F  0.97908231  0.43816347  0.66494158    -0.19000
F830        F  0.00866010  0.29216892  0.70899190    -0.19100
F831        F  0.04778934  0.30986715  0.68467445    -0.22900
F832        F  0.01206317  0.30034227  0.64419400    -0.24500
C833        C  0.10745901  0.40656513  0.28182729    -0.11300
C834        C  0.12281625  0.43066248  0.28949680     0.11300
C835        C  0.14256848  0.43044868  0.32048861    -0.03100
C836        C  0.14479992  0.40674843  0.34461915    -0.05900
C837        C  0.12746267  0.38374675  0.33939100    -0.16600
C838        C  0.10965925  0.38287038  0.30605914     0.02300
C839        C  0.11393823  0.45705860  0.27013611     0.12200
C840        C  0.16016032  0.45572006  0.32949226     0.62800
H841        H  0.15867795  0.40690027  0.36974259     0.12200
C842        C  0.09244608  0.35744099  0.29652966     0.55000
H843        H  0.09230797  0.40705798  0.25824514     0.08000
C844        C  0.12088114  0.46446842  0.23089663    -0.05800
C845        C  0.10985689  0.48934432  0.21495732    -0.06500
C846        C  0.09205446  0.50659960  0.23699085    -0.16100
C847        C  0.08642002  0.49965319  0.27697224    -0.01700
C848        C  0.09690568  0.47469051  0.29229673    -0.09200
C849        C  0.13925297  0.44591653  0.20583074     0.65000
H850        H  0.11408989  0.49486717  0.18459524     0.10500
C851        C  0.06954881  0.51839263  0.30400297     0.63400
H852        H  0.09155346  0.46848270  0.32205139     0.07900
F853        F  0.08297315  0.35802423  0.25795455    -0.19600
F854        F  0.06978691  0.35639333  0.32131830    -0.15800
F855        F  0.10816897  0.33358039  0.30115325    -0.19300
F856        F  0.14371834  0.47696391  0.34384143    -0.22700
F857        F  0.17331379  0.46459281  0.29563054    -0.24200
F858        F  0.18027493  0.44994388  0.35746333    -0.18200
F859        F  0.04166306  0.51544295  0.29593611    -0.20600
F860        F  0.07717742  0.54579592  0.29884962    -0.21800
F861        F  0.07377201  0.51185086  0.34334843    -0.19000
F862        F  0.14505830  0.45785739  0.16963921    -0.19100
F863        F  0.12624187  0.42086097  0.19913035    -0.22900
F864        F  0.16406526  0.44103913  0.22496852    -0.24500
C865        C  0.19000586  0.57020320  0.06066676    -0.11300
C866        C  0.19236529  0.59217191  0.03379098     0.11300
C867        C  0.16938271  0.60972588  0.02667903    -0.03100
C868        C  0.14592043  0.60697023  0.05073515    -0.05900
C869        C  0.14477007  0.58718193  0.08120904    -0.16600
C870        C  0.16643085  0.56735303  0.08480721     0.02300
C871        C  0.22019128  0.59963801  0.01880645     0.12200
C872        C  0.17014485  0.63188342  0.99474888     0.62800
H873        H  0.12879270  0.62134388  0.04730290     0.12200
C874        C  0.16574215  0.54469776  0.11586316     0.55000
H875        H  0.20774224  0.55670040  0.06480358     0.08000
C876        C  0.23765356  0.61714296  0.04121265    -0.05800
C877        C  0.26117414  0.62821165  0.02304968    -0.06500
C878        C  0.26778590  0.62245560  0.98347909    -0.16100
C879        C  0.25198554  0.60251921  0.96248968    -0.01700
C880        C  0.22805574  0.59161464  0.98059145    -0.09200
C881        C  0.23079072  0.62516403  0.08357654     0.65000
H882        H  0.27406703  0.64261550  0.03925706     0.10500
C883        C  0.25987168  0.59321163  0.92121410     0.63400
H884        H  0.21468784  0.57756180  0.96457970     0.07900
F885        F  0.16491359  0.55649022  0.15308767    -0.19600
F886        F  0.18881385  0.52764194  0.11387481    -0.15800
F887        F  0.14264849  0.52827905  0.11033652    -0.19300
F888        F  0.17368632  0.61933594  0.95838389    -0.22700
F889        F  0.19176169  0.65003593  0.00133450    -0.24200
F890        F  0.14588570  0.64724963  0.99348705    -0.18200
F891        F  0.28540418  0.58016558  0.92234528    -0.20600
F892        F  0.26118482  0.61574720  0.89614607    -0.21800
F893        F  0.24090030  0.57469585  0.90574330    -0.19000
F894        F  0.25058283  0.64249258  0.09976717    -0.19100
F895        F  0.22945340  0.60161983  0.10675418    -0.22900
F896        F  0.20562360  0.63888553  0.08496891    -0.24500
C897        C  0.47367232  0.62624715  0.18807680    -0.11300
C898        C  0.46995815  0.60430306  0.16143978     0.11300
C899        C  0.48381363  0.57879463  0.16779909    -0.03100
C900        C  0.50071971  0.57594779  0.20131308    -0.05900
C901        C  0.50483849  0.59792767  0.22800855    -0.16600
C902        C  0.49079498  0.62359865  0.22155953     0.02300
C903        C  0.45290032  0.60923234  0.12563417     0.12200
C904        C  0.48144340  0.55494557  0.13864001     0.62800
H905        H  0.51160729  0.55657296  0.20622614     0.12200
C906        C  0.49351780  0.64815197  0.24957941     0.55000
H907        H  0.46330801  0.64574622  0.18192196     0.08000
C908        C  0.42362990  0.60826227  0.12621421    -0.05800
C909        C  0.40919193  0.61239022  0.09066591    -0.06500
C910        C  0.42297149  0.61781343  0.05499973    -0.16100
C911        C  0.45227662  0.61987965  0.05484715    -0.01700
C912        C  0.46669980  0.61546659  0.09039595    -0.09200
C913        C  0.40768121  0.60278680  0.16401462     0.65000
H914        H  0.38680149  0.61144894  0.09043104     0.10500
C915        C  0.46827691  0.62793010  0.01804474     0.63400
H916        H  0.48906124  0.61686836  0.09110703     0.07900
F917        F  0.47512337  0.66929253  0.24037058    -0.19600
F918        F  0.51997666  0.65887694  0.24732776    -0.15800
F919        F  0.48810852  0.63989231  0.28789789    -0.19300
F920        F  0.49373627  0.56225191  0.10336282    -0.22700
F921        F  0.45392987  0.54875536  0.13192337    -0.24200
F922        F  0.49439853  0.53114654  0.15234530    -0.18200
F923        F  0.49611246  0.63186930  0.02589217    -0.20600
F924        F  0.45783185  0.65249588  0.00298744    -0.21800
F925        F  0.46615209  0.60723371  0.98993938    -0.19000
F926        F  0.37933686  0.60327268  0.15785596    -0.19100
F927        F  0.41377391  0.62285570  0.19181500    -0.22900
F928        F  0.41477879  0.57700535  0.17880822    -0.24500
C929        C  0.37549361  0.55905927  0.77654379    -0.11300
C930        C  0.36052076  0.53496497  0.78505025     0.11300
C931        C  0.34088880  0.53515563  0.81605236    -0.03100
C932        C  0.33842577  0.55909682  0.83956969    -0.05900
C933        C  0.35578729  0.58198497  0.83387108    -0.16600
C934        C  0.37358211  0.58270046  0.80064656     0.02300
C935        C  0.37056171  0.50873941  0.76723743     0.12200
C936        C  0.32445094  0.50943003  0.82656493     0.62800
H937        H  0.32495629  0.55895945  0.86510424     0.12200
C938        C  0.39182724  0.60750276  0.79191149     0.55000
H939        H  0.39066442  0.55833826  0.75303403     0.08000
C940        C  0.36460768  0.50068500  0.72800190    -0.05800
C941        C  0.37782580  0.47691069  0.71264181    -0.06500
C942        C  0.39724285  0.46182024  0.73499684    -0.16100
C943        C  0.40230275  0.46943527  0.77486937    -0.01700
C944        C  0.38894706  0.49297186  0.79003660    -0.09200
C945        C  0.34534713  0.51768932  0.70211136     0.65000
H946        H  0.37415691  0.47075472  0.68233940     0.10500
C947        C  0.42156431  0.45299422  0.80171994     0.63400
H948        H  0.39348878  0.49992363  0.81976250     0.07900
F949        F  0.40191323  0.60664608  0.75368432    -0.19600
F950        F  0.41414076  0.60769612  0.81745586    -0.15800
F951        F  0.37686250  0.63185410  0.79623219    -0.19300
F952        F  0.34167059  0.48996012  0.84389156    -0.22700
F953        F  0.31274369  0.49809729  0.79303342    -0.24200
F954        F  0.30329952  0.51550468  0.85275708    -0.18200
F955        F  0.44878281  0.45755396  0.79109561    -0.20600
F956        F  0.41568488  0.42498148  0.79906656    -0.21800
F957        F  0.41863310  0.46071170  0.84087735    -0.19000
F958        F  0.33977180  0.50438555  0.66676281    -0.19100
F959        F  0.35740268  0.54296652  0.69375506    -0.22900
F960        F  0.32048842  0.52222772  0.72123197    -0.24500
C961        C  0.15856914  0.70699480  0.41507764    -0.11300
C962        C  0.14402939  0.72035113  0.38462109     0.11300
C963        C  0.13563272  0.74837315  0.38922001    -0.03100
C964        C  0.14180866  0.76199947  0.42477889    -0.05900
C965        C  0.15593582  0.74853550  0.45549112    -0.16600
C966        C  0.16492483  0.72072116  0.45059109     0.02300
C967        C  0.13521526  0.70345717  0.35026269     0.12200
C968        C  0.11958986  0.76363077  0.35724832     0.62800
H969        H  0.13495767  0.78319544  0.42939170     0.12200
C970        C  0.18009804  0.70528638  0.48321636     0.55000
H971        H  0.16425398  0.68540462  0.41112070     0.08000
C972        C  0.15329642  0.69615953  0.31915240    -0.05800
C973        C  0.14325908  0.67905089  0.28854501    -0.06500
C974        C  0.11584883  0.66905114  0.28833126    -0.16100
C975        C  0.09763488  0.67730158  0.31938559    -0.01700
C976        C  0.10800119  0.69382942  0.35010280    -0.09200
C977        C  0.18306057  0.70619716  0.31869899     0.65000
H978        H  0.15703409  0.67291762  0.26489435     0.10500
C979        C  0.06715977  0.66957308  0.32030126     0.63400
H980        H  0.09483345  0.69943423  0.37473428     0.07900
F981        F  0.20563738  0.71734882  0.48952826    -0.19600
F982        F  0.18441167  0.67764175  0.47376144    -0.15800
F983        F  0.16485933  0.70631777  0.51773513    -0.19300
F984        F  0.09368967  0.75199368  0.35278989    -0.22700
F985        F  0.13363135  0.76196941  0.32181718    -0.24200
F986        F  0.11602404  0.79144546  0.36632764    -0.18200
F987        F  0.06441889  0.64158708  0.32830958    -0.20600
F988        F  0.05502404  0.67585970  0.28440792    -0.21800
F989        F  0.05278303  0.68402396  0.34912864    -0.19000
F990        F  0.19654622  0.69875692  0.28424101    -0.19100
F991        F  0.19741820  0.69477383  0.35006703    -0.22900
F992        F  0.18373903  0.73480035  0.32181434    -0.24500
C993        C  0.24008537  0.76445319  0.74704659    -0.11300
C994        C  0.24250045  0.73541737  0.74741098     0.11300
C995        C  0.22881295  0.71947555  0.71845409    -0.03100
C996        C  0.21454516  0.73335513  0.68829440    -0.05900
C997        C  0.21268892  0.76251195  0.68682209    -0.16600
C998        C  0.22501522  0.77845742  0.71740904     0.02300
C999        C  0.25778029  0.72203541  0.78021918     0.12200
C1000       C  0.22887208  0.68792271  0.71979776     0.62800
H1001       H  0.20433799  0.72132037  0.66558694     0.12200
C1002       C  0.22233642  0.80986474  0.71917113     0.55000
H1003       H  0.24991489  0.77600833  0.77059604     0.08000
C1004       C  0.28672550  0.71747944  0.77906018    -0.05800
C1005       C  0.29945648  0.70387688  0.81111825    -0.06500
C1006       C  0.28431286  0.69631848  0.84474046    -0.16100
C1007       C  0.25535364  0.70141295  0.84599614    -0.01700
C1008       C  0.24258090  0.71398456  0.81334665    -0.09200
C1009       C  0.30411713  0.72805303  0.74497678     0.65000
H1010       H  0.32161230  0.70036019  0.81110588     0.10500
C1011       C  0.23790688  0.69446441  0.88188502     0.63400
H1012       H  0.22055333  0.71828506  0.81371896     0.07900
F1013       F  0.23772395  0.82108151  0.74971187    -0.19600
F1014       F  0.19495320  0.81708320  0.72525333    -0.15800
F1015       F  0.23149539  0.82155033  0.68433067    -0.19300
F1016       F  0.21598066  0.67901630  0.75387282    -0.22700
F1017       F  0.25571403  0.67793824  0.71929556    -0.24200
F1018       F  0.21496381  0.67650746  0.68798078    -0.18200
F1019       F  0.24284301  0.71364310  0.91139071    -0.20600
F1020       F  0.24429172  0.66822851  0.89556698    -0.21800
F1021       F  0.20989527  0.69499901  0.87318843    -0.19000
F1022       F  0.33178105  0.72112162  0.74941676    -0.19100
F1023       F  0.30208916  0.75665206  0.74305221    -0.22900
F1024       F  0.29493718  0.71688578  0.70977288    -0.24500
C1025       C  0.96799489  0.75761730  0.13103071    -0.11300
C1026       C  0.98416949  0.74594123  0.16118756     0.11300
C1027       C  0.98239842  0.75666098  0.20005892    -0.03100
C1028       C  0.96421324  0.77880857  0.20751517    -0.05900
C1029       C  0.94760702  0.79026797  0.17770914    -0.16600
C1030       C  0.94944249  0.77966759  0.13867748     0.02300
C1031       C  0.00306786  0.72246803  0.15206509     0.12200
C1032       C  0.99968062  0.74474823  0.23362047     0.62800
H1033       H  0.96257213  0.78726341  0.23706022     0.12200
C1034       C  0.93238118  0.79186016  0.10521525     0.55000
H1035       H  0.96987092  0.74912118  0.10155291     0.08000
C1036       C  0.99420316  0.69462190  0.15458384    -0.05800
C1037       C  0.01435758  0.67361914  0.15745376    -0.06500
C1038       C  0.04282999  0.67966606  0.15702611    -0.16100
C1039       C  0.05147435  0.70726269  0.14915427    -0.01700
C1040       C  0.03120408  0.72828128  0.14681630    -0.09200
C1041       C  0.96366171  0.68731927  0.15533261     0.65000
H1042       H  0.00800284  0.65231746  0.16190182     0.10500
C1043       C  0.08180094  0.71491835  0.14534010     0.63400
H1044       H  0.03724565  0.74978621  0.14367299     0.07900
F1045       F  0.90473513  0.78575219  0.11081750    -0.19600
F1046       F  0.94026168  0.78122748  0.06893519    -0.15800
F1047       F  0.93569995  0.82035625  0.10403265    -0.19300
F1048       F  0.02744089  0.74926558  0.22639571    -0.22700
F1049       F  0.99512497  0.71655300  0.23702322    -0.24200
F1050       F  0.99319575  0.75689612  0.26949217    -0.18200
F1051       F  0.08533770  0.74310219  0.13935432    -0.20600
F1052       F  0.09318327  0.70111995  0.11339717    -0.21800
F1053       F  0.09595115  0.70772572  0.17935772    -0.19000
F1054       F  0.95956830  0.65899702  0.15877845    -0.19100
F1055       F  0.95136119  0.69606340  0.12061678    -0.22900
F1056       F  0.95071880  0.70017500  0.18682777    -0.24500
C1057       C  0.82791837  0.04050493  0.31113431    -0.11300
C1058       C  0.85111561  0.03700857  0.28672432     0.11300
C1059       C  0.86957940  0.05941800  0.28122466    -0.03100
C1060       C  0.86614847  0.08339683  0.30435380    -0.05900
C1061       C  0.84501988  0.08553961  0.33261934    -0.16600
C1062       C  0.82453513  0.06456268  0.33449608     0.02300
C1063       C  0.85833011  0.00876090  0.27209489     0.12200
C1064       C  0.89387330  0.05725389  0.25292009     0.62800
H1065       H  0.88129891  0.09986674  0.30275631     0.12200
C1066       C  0.80036093  0.06669338  0.36290353     0.55000
H1067       H  0.81365457  0.02335081  0.31396899     0.08000
C1068       C  0.87381162  0.99024557  0.29596167    -0.05800
C1069       C  0.88634436  0.96709990  0.27810786    -0.06500
C1070       C  0.88331259  0.96149661  0.23761417    -0.16100
C1071       C  0.86468759  0.97795952  0.21500932    -0.01700
C1072       C  0.85272547  0.00170016  0.23271593    -0.09200
C1073       C  0.87776460  0.99539363  0.33988881     0.65000
H1074       H  0.89957462  0.95363509  0.29550641     0.10500
C1075       C  0.85811884  0.97113133  0.17231081     0.63400
H1076       H  0.83996629  0.01570030  0.21548726     0.07900
F1077       F  0.80998224  0.06822792  0.40130706    -0.19600
F1078       F  0.78300842  0.04398609  0.36011955    -0.15800
F1079       F  0.78496857  0.09021098  0.35440550    -0.19300
F1080       F  0.88433657  0.05160678  0.21529712    -0.22700
F1081       F  0.91157646  0.03622686  0.26476652    -0.24200
F1082       F  0.90884548  0.08166150  0.25133084    -0.18200
F1083       F  0.84562244  0.94538428  0.17036242    -0.20600
F1084       F  0.88214747  0.97085395  0.15015684    -0.21800
F1085       F  0.84018162  0.99031934  0.15570534    -0.19000
F1086       F  0.89364519  0.97485033  0.35747522    -0.19100
F1087       F  0.85227798  0.99580972  0.35838715    -0.22900
F1088       F  0.89080398  0.02052031  0.34600405    -0.24500
C1089       C  0.03537134  0.84164483  0.44028710    -0.11300
C1090       C  0.04305463  0.86305927  0.41467310     0.11300
C1091       C  0.06728628  0.87863610  0.42236347    -0.03100
C1092       C  0.08419151  0.87084024  0.45442483    -0.05900
C1093       C  0.07679758  0.84889739  0.47931907    -0.16600
C1094       C  0.05181467  0.83439197  0.47285095     0.02300
C1095       C  0.02475580  0.86874600  0.38049114     0.12200
C1096       C  0.07488224  0.90358279  0.39732892     0.62800
H1097       H  0.10315061  0.88195472  0.46059083     0.12200
C1098       C  0.04264427  0.81143437  0.50044605     0.55000
H1099       H  0.01633619  0.83058495  0.43436563     0.08000
C1100       C  0.02686420  0.85327901  0.34509875    -0.05800
C1101       C  0.00786927  0.85870552  0.31459464    -0.06500
C1102       C  0.98693198  0.87879055  0.31862006    -0.16100
C1103       C  0.98437942  0.89376737  0.35451342    -0.01700
C1104       C  0.00347251  0.88837060  0.38500139    -0.09200
C1105       C  0.04876094  0.83081357  0.33989030     0.65000
H1106       H  0.00923172  0.84727069  0.28712331     0.10500
C1107       C  0.96103180  0.91446099  0.36124349     0.63400
H1108       H  0.00187570  0.89929923  0.41285999     0.07900
F1109       F  0.01779817  0.79983287  0.48875985    -0.19600
F1110       F  0.03922406  0.82205973  0.53804249    -0.15800
F1111       F  0.06241209  0.79063044  0.50118706    -0.19300
F1112       F  0.05367100  0.92290468  0.39840886    -0.22700
F1113       F  0.07921618  0.89554903  0.35868671    -0.24200
F1114       F  0.09871066  0.91633405  0.41083831    -0.18200
F1115       F  0.96036904  0.92385683  0.39986166    -0.20600
F1116       F  0.93587000  0.90206919  0.35317144    -0.21800
F1117       F  0.96439033  0.93722800  0.33696021    -0.19000
F1118       F  0.04770724  0.81897520  0.30268411    -0.19100
F1119       F  0.04478213  0.81000989  0.36732863    -0.22900
F1120       F  0.07486003  0.84183988  0.34504150    -0.24500
C1121       C  0.00560990  0.19928309  0.90313281    -0.11300
C1122       C  0.00090805  0.21837848  0.87252815     0.11300
C1123       C  0.01524973  0.21541726  0.83629670    -0.03100
C1124       C  0.03343380  0.19286581  0.83159840    -0.05900
C1125       C  0.03810809  0.17369915  0.86200365    -0.16600
C1126       C  0.02394413  0.17665386  0.89831699     0.02300
C1127       C  0.98026536  0.24097894  0.87811896     0.12200
C1128       C  0.01138921  0.23602857  0.80271478     0.62800
H1129       H  0.04442105  0.19006226  0.80401249     0.12200
C1130       C  0.02722054  0.15527497  0.93083663     0.55000
H1131       H  0.99443644  0.20202276  0.93055300     0.08000
C1132       C  0.95175975  0.23682419  0.87064469    -0.05800
C1133       C  0.93414860  0.26014735  0.86882513    -0.06500
C1134       C  0.94443683  0.28725143  0.87250783    -0.16100
C1135       C  0.97272245  0.29117533  0.88229347    -0.01700
C1136       C  0.99000685  0.26775052  0.88604283    -0.09200
C1137       C  0.94031043  0.20796381  0.86322483     0.65000
H1138       H  0.91244638  0.25745283  0.86213928     0.10500
C1139       C  0.98501300  0.31987590  0.88725255     0.63400
H1140       H  0.01186336  0.27030951  0.89212460     0.07900
F1141       F  0.01018636  0.16096417  0.96267733    -0.19600
F1142       F  0.05427569  0.15490007  0.94411777    -0.15800
F1143       F  0.02045500  0.12928684  0.91646125    -0.19300
F1144       F  0.02047836  0.26193704  0.81434778    -0.22700
F1145       F  0.98376422  0.23776528  0.79229164    -0.24200
F1146       F  0.02621065  0.22838583  0.76947246    -0.18200
F1147       F  0.01104565  0.31878101  0.90429742    -0.20600
F1148       F  0.96823933  0.33586694  0.91135542    -0.21800
F1149       F  0.98751908  0.33239242  0.85073665    -0.19000
F1150       F  0.91230442  0.20862172  0.85459854    -0.19100
F1151       F  0.94409766  0.19178378  0.89646905    -0.22900
F1152       F  0.95382552  0.19567943  0.83173027    -0.24500
C1153       C  0.96230202  0.11005944  0.58161685    -0.11300
C1154       C  0.94981192  0.10227619  0.61707986     0.11300
C1155       C  0.92068656  0.10094244  0.62002805    -0.03100
C1156       C  0.90481339  0.10715865  0.58646274    -0.05900
C1157       C  0.91719613  0.11491966  0.55064936    -0.16600
C1158       C  0.94654823  0.11654130  0.54804699     0.02300
C1159       C  0.96798829  0.09747827  0.65135743     0.12200
C1160       C  0.90649672  0.09356028  0.65861001     0.62800
H1161       H  0.88245080  0.10626574  0.58805290     0.12200
C1162       C  0.96139600  0.12607580  0.51090503     0.55000
H1163       H  0.98467359  0.11130965  0.58074540     0.08000
C1164       C  0.98098730  0.07164590  0.65815886    -0.05800
C1165       C  0.99809212  0.06886061  0.69146118    -0.06500
C1166       C  0.00335404  0.09135513  0.71693046    -0.16100
C1167       C  0.99100022  0.11766942  0.70885940    -0.01700
C1168       C  0.97327685  0.12002785  0.67617921    -0.09200
C1169       C  0.97749710  0.04752577  0.62963205     0.65000
H1170       H  0.00803917  0.04911073  0.69732918     0.10500
C1171       C  0.99607159  0.14325718  0.73423674     0.63400
H1172       H  0.96348916  0.13970544  0.66926768     0.07900
F1173       F  0.95808345  0.10666124  0.48122525    -0.19600
F1174       F  0.98953374  0.12934643  0.51703847    -0.15800
F1175       F  0.95086344  0.15140011  0.49881370    -0.19300
F1176       F  0.91231884  0.11347475  0.68676359    -0.22700
F1177       F  0.91573936  0.06807207  0.67197198    -0.24200
F1178       F  0.87803624  0.09212646  0.65436450    -0.18200
F1179       F  0.02339768  0.15136121  0.73079798    -0.20600
F1180       F  0.99008347  0.13756512  0.77330560    -0.21800
F1181       F  0.97968394  0.16550109  0.72283430    -0.19000
F1182       F  0.98999772  0.02354860  0.64353176    -0.19100
F1183       F  0.98940196  0.05417009  0.59380720    -0.22900
F1184       F  0.94977636  0.04194461  0.62369768    -0.24500
C1185       C  0.12075788  0.90232222  0.75315153    -0.11300
C1186       C  0.12905199  0.92864173  0.74014987     0.11300
C1187       C  0.14669375  0.93078964  0.70695989    -0.03100
C1188       C  0.15252611  0.90667369  0.68477724    -0.05900
C1189       C  0.14161224  0.88076957  0.69535323    -0.16600
C1190       C  0.12686007  0.87816293  0.73131084     0.02300
C1191       C  0.11631934  0.95351729  0.75918130     0.12200
C1192       C  0.15903676  0.95845864  0.69501649     0.62800
H1193       H  0.16428389  0.90816252  0.65767228     0.12200
C1194       C  0.11782576  0.84999180  0.74665568     0.55000
H1195       H  0.10808015  0.90106274  0.77942377     0.08000
C1196       C  0.09041561  0.96387781  0.74633417    -0.05800
C1197       C  0.07872540  0.98670043  0.76614311    -0.06500
C1198       C  0.09164765  0.99961193  0.79873119    -0.16100
C1199       C  0.11807630  0.98943008  0.81099421    -0.01700
C1200       C  0.12975763  0.96633208  0.79103342    -0.09200
C1201       C  0.07493000  0.95068979  0.71193090     0.65000
H1202       H  0.05897076  0.99457433  0.75600059     0.10500
C1203       C  0.13405514  0.00247460  0.84482096     0.63400
H1204       H  0.14957636  0.95794193  0.80014532     0.07900
F1205       F  0.09842910  0.83829612  0.72178656    -0.19600
F1206       F  0.10615952  0.85193148  0.78385661    -0.15800
F1207       F  0.14057277  0.83257327  0.74911558    -0.19300
F1208       F  0.17613859  0.96781977  0.72487680    -0.22700
F1209       F  0.13844696  0.97792781  0.68856785    -0.24200
F1210       F  0.17454846  0.95624279  0.66082789    -0.18200
F1211       F  0.15851349  0.98842167  0.85257328    -0.20600
F1212       F  0.11827807  0.00204616  0.87884628    -0.21800
F1213       F  0.14074116  0.02955133  0.83537633    -0.19000
F1214       F  0.05018922  0.96419492  0.70402901    -0.19100
F1215       F  0.06896688  0.92332696  0.72049129    -0.22900
F1216       F  0.09084774  0.95164464  0.67812230    -0.24500
C1217       C  0.00044133  0.97865997  0.96659859    -0.11300
C1218       C  0.99636480  0.99206906  0.00278352     0.11300
C1219       C  0.00603526  0.01955987  0.00811724    -0.03100
C1220       C  0.01837165  0.03328084  0.97586529    -0.05900
C1221       C  0.02103101  0.02029846  0.93890919    -0.16600
C1222       C  0.01240599  0.99236448  0.93431485     0.02300
C1223       C  0.98307327  0.97609496  0.03505673     0.12200
C1224       C  0.00317221  0.03422836  0.04762464     0.62800
H1225       H  0.02539190  0.05449281  0.97895036     0.12200
C1226       C  0.01559136  0.97699777  0.89541035     0.55000
H1227       H  0.99354111  0.95739722  0.96361558     0.08000
C1228       C  0.95394527  0.97364459  0.03859123    -0.05800
C1229       C  0.94302564  0.95893693  0.07097819    -0.06500
C1230       C  0.96043072  0.94589627  0.09854580    -0.16100
C1231       C  0.98952458  0.94599268  0.09243473    -0.01700
C1232       C  0.00033649  0.96163386  0.06113565    -0.09200
C1233       C  0.93464110  0.98607336  0.00790443     0.65000
H1234       H  0.92084844  0.95763120  0.07516412     0.10500
C1235       C  0.00908933  0.92865194  0.11767231     0.63400
H1236       H  0.02250545  0.96269903  0.05666630     0.07900
F1237       F  0.99600547  0.98654174  0.86885987    -0.19600
F1238       F  0.01195285  0.94870419  0.89995296    -0.15800
F1239       F  0.04179187  0.98111892  0.88011064    -0.19300
F1240       F  0.01752226  0.01971172  0.07631776    -0.22700
F1241       F  0.97559959  0.03580512  0.05824655    -0.24200
F1242       F  0.01356299  0.06094739  0.04641689    -0.18200
F1243       F  0.03523156  0.92690211  0.10116329    -0.20600
F1244       F  0.99903211  0.90190695  0.12119185    -0.21800
F1245       F  0.01171279  0.94033701  0.15474442    -0.19000
F1246       F  0.90712366  0.98140018  0.01697030    -0.19100
F1247       F  0.93990676  0.97422720  0.97149102    -0.22900
F1248       F  0.93863403  0.01439568  0.00542473    -0.24500
C1249       C  0.13158157  0.20212683  0.71075874    -0.11300
C1250       C  0.12705326  0.19172783  0.67271326     0.11300
C1251       C  0.11749573  0.16425085  0.66787099    -0.03100
C1252       C  0.11123204  0.14856085  0.70164574    -0.05900
C1253       C  0.11448275  0.15918941  0.74013915    -0.16600
C1254       C  0.12537080  0.18651788  0.74481103     0.02300
C1255       C  0.13203964  0.21028725  0.63836121     0.12200
C1256       C  0.11413413  0.15146758  0.62714317     0.62800
H1257       H  0.10369093  0.12759167  0.69804059     0.12200
C1258       C  0.12978981  0.19984261  0.78502743     0.55000
H1259       H  0.13959778  0.22299983  0.71341324     0.08000
C1260       C  0.11222988  0.23016769  0.62600390    -0.05800
C1261       C  0.11756408  0.24577150  0.59179538    -0.06500
C1262       C  0.14205115  0.24238962  0.56966088    -0.16100
C1263       C  0.16235751  0.22303583  0.58315943    -0.01700
C1264       C  0.15689474  0.20746589  0.61749592    -0.09200
C1265       C  0.08536801  0.23458852  0.64855598     0.65000
H1266       H  0.10233371  0.26078527  0.58196407     0.10500
C1267       C  0.18940374  0.21808052  0.56136152     0.63400
H1268       H  0.17190242  0.19251757  0.62823502     0.07900
F1269       F  0.13889834  0.22696891  0.78197274    -0.19600
F1270       F  0.14961671  0.18516512  0.80592310    -0.15800
F1271       F  0.10516009  0.20023678  0.80580140    -0.19300
F1272       F  0.13975789  0.14901726  0.60935484    -0.22700
F1273       F  0.09721728  0.16797917  0.60398484    -0.24200
F1274       F  0.10248720  0.12529189  0.62888179    -0.18200
F1275       F  0.20537470  0.24182467  0.56261119    -0.20600
F1276       F  0.18405217  0.21092019  0.52255650    -0.21800
F1277       F  0.20475492  0.19676961  0.57801573    -0.19000
F1278       F  0.06867071  0.25447972  0.63097604    -0.19100
F1279       F  0.09105178  0.24333666  0.68655365    -0.22900
F1280       F  0.07069334  0.21004440  0.65010084    -0.24500
C1281       C  0.16106236  0.10726922  0.00982479    -0.11300
C1282       C  0.18622963  0.09470870  0.99955694     0.11300
C1283       C  0.18656055  0.07330110  0.97090840    -0.03100
C1284       C  0.16236860  0.06851914  0.94856237    -0.05900
C1285       C  0.13811000  0.08394875  0.95542569    -0.16600
C1286       C  0.13666828  0.10149512  0.98895191     0.02300
C1287       C  0.21210688  0.10701747  0.01540766     0.12200
C1288       C  0.21259591  0.05638390  0.96346253     0.62800
H1289       H  0.16295958  0.05446535  0.92360555     0.12200
C1290       C  0.11012683  0.11540134  0.00257592     0.55000
H1291       H  0.16073281  0.12272019  0.03311323     0.08000
C1292       C  0.22490375  0.12953382  0.99601107    -0.05800
C1293       C  0.24863254  0.14129264  0.01295125    -0.06500
C1294       C  0.25959638  0.13216191  0.04932850    -0.16100
C1295       C  0.24696123  0.10904975  0.06830130    -0.01700
C1296       C  0.22332379  0.09691513  0.05077952    -0.09200
C1297       C  0.21287413  0.14195835  0.95833337     0.65000
H1298       H  0.25836926  0.15855824  0.99811034     0.10500
C1299       C  0.25767953  0.09744891  0.10708006     0.63400
H1300       H  0.21301666  0.07965635  0.06486907     0.07900
F1301       F  0.11140862  0.14352477  0.99477176    -0.19600
F1302       F  0.10709719  0.11161654  0.04281174    -0.15800
F1303       F  0.08692550  0.10448683  0.98440541    -0.19300
F1304       F  0.21994040  0.04260877  0.99771370    -0.22700
F1305       F  0.23414376  0.07343340  0.95229514    -0.24200
F1306       F  0.20870439  0.03683560  0.93404326    -0.18200
F1307       F  0.24164892  0.07567720  0.12054974    -0.20600
F1308       F  0.25740477  0.11795499  0.13567965    -0.21800
F1309       F  0.28435347  0.08754765  0.10209900    -0.19000
F1310       F  0.22967481  0.16244408  0.94284852    -0.19100
F1311       F  0.18730555  0.15366428  0.96625536    -0.22900
F1312       F  0.20979883  0.12172384  0.92976967    -0.24500
C1313       C  0.97837591  0.71248049  0.63906157    -0.11300
C1314       C  0.98658290  0.72686716  0.60510716     0.11300
C1315       C  0.97093562  0.72445083  0.57001319    -0.03100
C1316       C  0.94780432  0.70699217  0.56987274    -0.05900
C1317       C  0.93975062  0.69182377  0.60342505    -0.16600
C1318       C  0.95490233  0.69514719  0.63914277     0.02300
C1319       C  0.01252194  0.74322010  0.60620190     0.12200
C1320       C  0.97891487  0.73983452  0.53254217     0.62800
H1321       H  0.93632305  0.70433498  0.54268832     0.12200
C1322       C  0.94606918  0.68147573  0.67747401     0.55000
H1323       H  0.99081734  0.71473083  0.66546396     0.08000
C1324       C  0.01334639  0.77078698  0.62019284    -0.05800
C1325       C  0.03806649  0.78579854  0.61609389    -0.06500
C1326       C  0.06190300  0.77430804  0.59820257    -0.16100
C1327       C  0.06123098  0.74589917  0.58614332    -0.01700
C1328       C  0.03647954  0.73093848  0.59085005    -0.09200
C1329       C  0.98813352  0.78434421  0.63898678     0.65000
H1330       H  0.03848555  0.80719589  0.62576013     0.10500
C1331       C  0.08597876  0.73096837  0.56820065     0.63400
H1332       H  0.03516142  0.70958455  0.58102232     0.07900
F1333       F  0.96166767  0.69062426  0.70920030    -0.19600
F1334       F  0.94933376  0.65302073  0.67501450    -0.15800
F1335       F  0.91863891  0.68781914  0.68508573    -0.19300
F1336       F  0.00412896  0.73019561  0.51892252    -0.22700
F1337       F  0.98087211  0.76794369  0.54005070    -0.24200
F1338       F  0.95958718  0.73623874  0.50278462    -0.18200
F1339       F  0.08134961  0.70275942  0.56404738    -0.20600
F1340       F  0.10887027  0.73416838  0.59223284    -0.21800
F1341       F  0.09138904  0.74142403  0.53107651    -0.19000
F1342       F  0.99293943  0.81180709  0.64880491    -0.19100
F1343       F  0.98123608  0.77028440  0.67309041    -0.22900
F1344       F  0.96591040  0.78364883  0.61329576    -0.24500
C1345       C  0.73143289  0.59561489  0.55432621    -0.11300
C1346       C  0.72546637  0.60228750  0.51493593     0.11300
C1347       C  0.74371171  0.61952085  0.49348969    -0.03100
C1348       C  0.76744333  0.62957252  0.51250833    -0.05900
C1349       C  0.77244089  0.62493083  0.55287405    -0.16600
C1350       C  0.75448501  0.60701486  0.57413069     0.02300
C1351       C  0.69799568  0.59485225  0.49859613     0.12200
C1352       C  0.73699772  0.62936241  0.45181710     0.62800
H1353       H  0.78140293  0.64300842  0.49651925     0.12200
C1354       C  0.75830761  0.60135772  0.61788977     0.55000
H1355       H  0.71685005  0.58271035  0.57006653     0.08000
C1356       C  0.69405505  0.57216819  0.47273080    -0.05800
C1357       C  0.66938718  0.57105985  0.45045109    -0.06500
C1358       C  0.64832944  0.59097180  0.45561792    -0.16100
C1359       C  0.65047326  0.61030794  0.48702548    -0.01700
C1360       C  0.67578501  0.61265397  0.50700195    -0.09200
C1361       C  0.71545383  0.54911232  0.46973392     0.65000
H1362       H  0.66694664  0.55543366  0.42773711     0.10500
C1363       C  0.62662932  0.62900519  0.49923089     0.63400
H1364       H  0.67866108  0.62914559  0.52839236     0.07900
F1365       F  0.78352777  0.58847526  0.62432100    -0.19600
F1366       F  0.73787087  0.58416852  0.63260647    -0.15800
F1367       F  0.75726154  0.62605465  0.63868986    -0.19300
F1368       F  0.71273920  0.64466734  0.45218472    -0.22700
F1369       F  0.73379955  0.60707978  0.42663801    -0.24200
F1370       F  0.75768822  0.64599265  0.43656501    -0.18200
F1371       F  0.62825651  0.63521573  0.53907517    -0.20600
F1372       F  0.60149036  0.61607328  0.49281538    -0.21800
F1373       F  0.62749870  0.65349163  0.47805038    -0.19000
F1374       F  0.70752629  0.52890282  0.44300806    -0.19100
F1375       F  0.71850038  0.53679820  0.50632473    -0.22900
F1376       F  0.74080099  0.55935096  0.45803397    -0.24500
C1377       C  0.84179734  0.79424473  0.35576040    -0.11300
C1378       C  0.86309964  0.78203921  0.37788492     0.11300
C1379       C  0.89095972  0.78514605  0.36601589    -0.03100
C1380       C  0.89657554  0.80039875  0.33176440    -0.05900
C1381       C  0.87532340  0.81214934  0.30883775    -0.16600
C1382       C  0.84737325  0.80948196  0.32127477     0.02300
C1383       C  0.85567599  0.76475938  0.41227435     0.12200
C1384       C  0.91462300  0.77161079  0.38861177     0.62800
H1385       H  0.91776532  0.80248104  0.32183172     0.12200
C1386       C  0.82350054  0.82272458  0.29884902     0.55000
H1387       H  0.82065881  0.79125461  0.36542708     0.08000
C1388       C  0.85182335  0.77613903  0.45038307    -0.05800
C1389       C  0.84798004  0.75788796  0.48230440    -0.06500
C1390       C  0.84734300  0.72903489  0.47666521    -0.16100
C1391       C  0.84908593  0.71791565  0.43803027    -0.01700
C1392       C  0.85344683  0.73610883  0.40636329    -0.09200
C1393       C  0.85136258  0.80732190  0.45695577     0.65000
H1394       H  0.84570590  0.76595879  0.51197290     0.10500
C1395       C  0.84586950  0.68707047  0.43019930     0.63400
H1396       H  0.85576615  0.72808600  0.37666823     0.07900
F1397       F  0.79916134  0.82207149  0.32036826    -0.19600
F1398       F  0.81913789  0.80855601  0.26390755    -0.15800
F1399       F  0.82933681  0.85022251  0.29075555    -0.19300
F1400       F  0.91304139  0.74310345  0.38474568    -0.22700
F1401       F  0.91322978  0.77850295  0.42815667    -0.24200
F1402       F  0.94016986  0.78003696  0.37466911    -0.18200
F1403       F  0.84503357  0.68120282  0.39021530    -0.20600
F1404       F  0.82149882  0.67772518  0.44686766    -0.21800
F1405       F  0.86794781  0.67274236  0.44626786    -0.19000
F1406       F  0.84899566  0.81398747  0.49655564    -0.19100
F1407       F  0.82898833  0.81872847  0.43723662    -0.22900
F1408       F  0.87539372  0.81919340  0.44286406    -0.24500
C1409       C  0.97149919  0.62915792  0.34889718    -0.11300
C1410       C  0.97716551  0.61333097  0.38262142     0.11300
C1411       C  0.99824695  0.59285193  0.38172479    -0.03100
C1412       C  0.01264841  0.58846727  0.34626445    -0.05900
C1413       C  0.00694058  0.60424172  0.31243974    -0.16600
C1414       C  0.98643828  0.62539593  0.31375668     0.02300
C1415       C  0.95939022  0.61761379  0.41762883     0.12200
C1416       C  0.00544247  0.57570961  0.41795429     0.62800
H1417       H  0.02857723  0.57261779  0.34461693     0.12200
C1418       C  0.97952656  0.64319679  0.27801064     0.55000
H1419       H  0.95495337  0.64435845  0.35032552     0.08000
C1420       C  0.96243384  0.64087146  0.44285264    -0.05800
C1421       C  0.94414602  0.64376902  0.47478024    -0.06500
C1422       C  0.92332848  0.62425730  0.48182035    -0.16100
C1423       C  0.92037912  0.60099908  0.45696474    -0.01700
C1424       C  0.93829683  0.59827910  0.42460084    -0.09200
C1425       C  0.98475231  0.66248461  0.43611319     0.65000
H1426       H  0.94589709  0.66133947  0.49459734     0.10500
C1427       C  0.89842434  0.57933575  0.46493163     0.63400
H1428       H  0.93605275  0.58097839  0.40443118     0.07900
F1429       F  0.00205948  0.65918303  0.26782066    -0.19600
F1430       F  0.95759910  0.66107206  0.28529715    -0.15800
F1431       F  0.97241422  0.62641219  0.24650705    -0.19300
F1432       F  0.98336532  0.55905040  0.42807157    -0.22700
F1433       F  0.01158169  0.59303507  0.44927660    -0.24200
F1434       F  0.02815506  0.55870137  0.41144995    -0.18200
F1435       F  0.89966505  0.55769445  0.43809000    -0.20600
F1436       F  0.87247540  0.59143973  0.46253252    -0.21800
F1437       F  0.90209011  0.56843156  0.50233593    -0.19000
F1438       F  0.98542210  0.68195489  0.46617418    -0.19100
F1439       F  0.97982726  0.67636115  0.40112631    -0.22900
F1440       F  0.01044842  0.64983319  0.43432102    -0.24500
C1441       C  0.87760793  0.53017260  0.70914962    -0.11300
C1442       C  0.86236524  0.53150564  0.74423337     0.11300
C1443       C  0.84561895  0.55499877  0.75226029    -0.03100
C1444       C  0.84598205  0.57736296  0.72552225    -0.05900
C1445       C  0.86245422  0.57658094  0.69145437    -0.16600
C1446       C  0.87770362  0.55221023  0.68218169     0.02300
C1447       C  0.86636562  0.50846693  0.77260198     0.12200
C1448       C  0.82705679  0.55602610  0.78826913     0.62800
H1449       H  0.83389117  0.59588384  0.73143006     0.12200
C1450       C  0.89372594  0.54917744  0.64377826     0.55000
H1451       H  0.89003671  0.51182010  0.70352304     0.08000
C1452       C  0.85724900  0.48107543  0.76459391    -0.05800
C1453       C  0.86913540  0.45895625  0.78573571    -0.06500
C1454       C  0.88960768  0.46354574  0.81422879    -0.16100
C1455       C  0.89659672  0.49099031  0.82509411    -0.01700
C1456       C  0.88499412  0.51309992  0.80369085    -0.09200
C1457       C  0.83594624  0.47387890  0.73334642     0.65000
H1458       H  0.86351585  0.43781046  0.77832253     0.10500
C1459       C  0.91677358  0.49677913  0.85846689     0.63400
H1460       H  0.89196920  0.53409130  0.80919871     0.07900
F1461       F  0.90233829  0.52207648  0.63756761    -0.19600
F1462       F  0.91696208  0.56580209  0.64466840    -0.15800
F1463       F  0.87716443  0.55677634  0.61220437    -0.19300
F1464       F  0.84279023  0.55502584  0.82230986    -0.22700
F1465       F  0.80928626  0.53360684  0.78760882    -0.24200
F1466       F  0.81126476  0.58006177  0.78927813    -0.18200
F1467       F  0.94307324  0.48830870  0.84781289    -0.20600
F1468       F  0.90868113  0.48256556  0.89195901    -0.21800
F1469       F  0.91778640  0.52475435  0.86769168    -0.19000
F1470       F  0.81446833  0.45953973  0.75081954    -0.19100
F1471       F  0.84808425  0.45708619  0.70506074    -0.22900
F1472       F  0.82481491  0.49691112  0.71483613    -0.24500
C1473       C  0.50660433  0.76717400  0.90152408    -0.11300
C1474       C  0.50757571  0.74189513  0.92171821     0.11300
C1475       C  0.53195952  0.73387860  0.94174491    -0.03100
C1476       C  0.55417728  0.75254155  0.94305034    -0.05900
C1477       C  0.55289850  0.77889078  0.92498310    -0.16600
C1478       C  0.52875868  0.78607663  0.90275989     0.02300
C1479       C  0.48223443  0.72469540  0.92296326     0.12200
C1480       C  0.53434749  0.70579827  0.96196103     0.62800
H1481       H  0.57271217  0.74666619  0.95897884     0.12200
C1482       C  0.52562569  0.81353399  0.88103568     0.55000
H1483       H  0.48778105  0.77227070  0.88568791     0.08000
C1484       C  0.46119734  0.72974187  0.95092899    -0.05800
C1485       C  0.43884017  0.71132439  0.95285250    -0.06500
C1486       C  0.43679345  0.68787444  0.92802658    -0.16100
C1487       C  0.45755070  0.68373232  0.89849072    -0.01700
C1488       C  0.47975166  0.70257364  0.89647783    -0.09200
C1489       C  0.46249774  0.75443672  0.97885654     0.65000
H1490       H  0.42300219  0.71499000  0.97479562     0.10500
C1491       C  0.45702567  0.65970919  0.86932283     0.63400
H1492       H  0.49602543  0.69977383  0.87487391     0.07900
F1493       F  0.52761306  0.83539170  0.90737776    -0.19600
F1494       F  0.50026495  0.81583177  0.86222092    -0.15800
F1495       F  0.54594674  0.81571704  0.85249108    -0.19300
F1496       F  0.53139525  0.68487598  0.93436619    -0.22700
F1497       F  0.51397851  0.70313402  0.99030928    -0.24200
F1498       F  0.55975020  0.70228331  0.98026752    -0.18200
F1499       F  0.47864817  0.66096034  0.84258780    -0.20600
F1500       F  0.43260469  0.66039726  0.84801490    -0.21800
F1501       F  0.45940981  0.63474687  0.88919077    -0.19000
F1502       F  0.44055725  0.75479666  0.00510046    -0.19100
F1503       F  0.46163705  0.77879342  0.95737585    -0.22900
F1504       F  0.48672455  0.75360703  0.00057354    -0.24500
C1505       C  0.62798415  0.66774099  0.17073539    -0.11300
C1506       C  0.63094350  0.69643556  0.17624820     0.11300
C1507       C  0.62831342  0.70787570  0.21455926    -0.03100
C1508       C  0.62278792  0.68992665  0.24623513    -0.05900
C1509       C  0.61891267  0.66134076  0.24070611    -0.16600
C1510       C  0.62223802  0.64982178  0.20246459     0.02300
C1511       C  0.63482615  0.71415148  0.14085433     0.12200
C1512       C  0.63099465  0.73889900  0.22195605     0.62800
H1513       H  0.62064885  0.69828534  0.27556531     0.12200
C1514       C  0.62063732  0.61875444  0.19529439     0.55000
H1515       H  0.62974752  0.65955019  0.14106451     0.08000
C1516       C  0.66069495  0.71706906  0.12204969    -0.05800
C1517       C  0.66235579  0.73393721  0.08820928    -0.06500
C1518       C  0.63909965  0.74815722  0.07266296    -0.16100
C1519       C  0.61314327  0.74530928  0.09241544    -0.01700
C1520       C  0.61157040  0.72775820  0.12553438    -0.09200
C1521       C  0.68635267  0.70228861  0.13762607     0.65000
H1522       H  0.68210739  0.73589622  0.07350149     0.10500
C1523       C  0.58706861  0.76073534  0.07977570     0.63400
H1524       H  0.59198924  0.72461277  0.14036014     0.07900
F1525       F  0.62879056  0.61179890  0.15738178    -0.19600
F1526       F  0.59379840  0.60965028  0.20042362    -0.15800
F1527       F  0.63792995  0.60501849  0.22141380    -0.19300
F1528       F  0.61077159  0.75321580  0.20141208    -0.22700
F1529       F  0.65670261  0.74792665  0.20977015    -0.24200
F1530       F  0.62808968  0.74543860  0.26153824    -0.18200
F1531       F  0.56499720  0.75558070  0.10472107    -0.20600
F1532       F  0.57928920  0.75250481  0.04228241    -0.21800
F1533       F  0.59181751  0.78902127  0.08047850    -0.19000
F1534       F  0.70976860  0.70897737  0.11620783    -0.19100
F1535       F  0.68280011  0.67388138  0.13543990    -0.22900
F1536       F  0.69097160  0.70964270  0.17650856    -0.24500
C1537       C  0.81431977  0.88430549  0.03844197    -0.11300
C1538       C  0.79588599  0.86232235  0.04485341     0.11300
C1539       C  0.80020424  0.84401962  0.07695489    -0.03100
C1540       C  0.82321318  0.84821467  0.10139007    -0.05900
C1541       C  0.84207292  0.86986459  0.09491996    -0.16600
C1542       C  0.83747193  0.88856043  0.06321476     0.02300
C1543       C  0.77329583  0.85714154  0.01614181     0.12200
C1544       C  0.78077711  0.81986984  0.08520029     0.62800
H1545       H  0.82678774  0.83427132  0.12593831     0.12200
C1546       C  0.85726984  0.91216753  0.05469454     0.55000
H1547       H  0.81060610  0.89782718  0.01347172     0.08000
C1548       C  0.74640786  0.86837435  0.02104936    -0.05800
C1549       C  0.72435200  0.85652798  0.99967552    -0.06500
C1550       C  0.72882880  0.83414806  0.97390527    -0.16100
C1551       C  0.75620136  0.82515297  0.96583999    -0.01700
C1552       C  0.77813803  0.83718342  0.98686391    -0.09200
C1553       C  0.74119814  0.89236610  0.04914584     0.65000
H1554       H  0.70330676  0.86349900  0.00470025     0.10500
C1555       C  0.76211964  0.80198240  0.93659435     0.63400
H1556       H  0.79902023  0.82933622  0.98311656     0.07900
F1557       F  0.85669806  0.93104464  0.08542210    -0.19600
F1558       F  0.85026130  0.92616575  0.02043514    -0.15800
F1559       F  0.88386828  0.90188379  0.05031811    -0.19300
F1560       F  0.78102054  0.80147641  0.05389270    -0.22700
F1561       F  0.75410983  0.82956546  0.09071147    -0.24200
F1562       F  0.78838356  0.80533486  0.11876096    -0.18200
F1563       F  0.79008062  0.79990155  0.92813468    -0.20600
F1564       F  0.74822359  0.80701812  0.90162994    -0.21800
F1565       F  0.75354484  0.77688429  0.95195190    -0.19000
F1566       F  0.71351581  0.89985444  0.05009974    -0.19100
F1567       F  0.75628684  0.91511067  0.03695864    -0.22900
F1568       F  0.74920738  0.88535582  0.08703056    -0.24500
C1569       C  0.72953510  0.75544942  0.78389410    -0.11300
C1570       C  0.73646906  0.72750378  0.78994956     0.11300
C1571       C  0.72803813  0.71387972  0.82465282    -0.03100
C1572       C  0.71214643  0.72871856  0.85201900    -0.05900
C1573       C  0.70509061  0.75692598  0.84662683    -0.16600
C1574       C  0.71372812  0.77058277  0.81148166     0.02300
C1575       C  0.75249082  0.71294525  0.75909353     0.12200
C1576       C  0.73611105  0.68390643  0.83307954     0.62800
H1577       H  0.70534197  0.71814366  0.87840235     0.12200
C1578       C  0.70659641  0.80070378  0.80256202     0.55000
H1579       H  0.73656712  0.76522825  0.75696517     0.08000
C1580       C  0.73968568  0.70271797  0.72454785    -0.05800
C1581       C  0.75633378  0.69029265  0.69562151    -0.06500
C1582       C  0.78513478  0.68791948  0.70021245    -0.16100
C1583       C  0.79776250  0.69686947  0.73584418    -0.01700
C1584       C  0.78107517  0.70974257  0.76452305    -0.09200
C1585       C  0.70875247  0.70581530  0.71762253     0.65000
H1586       H  0.74706337  0.68325171  0.66828568     0.10500
C1587       C  0.82861270  0.69352722  0.74338772     0.63400
H1588       H  0.79021010  0.71773458  0.79140840     0.07900
F1589       F  0.71885478  0.80978628  0.76800582    -0.19600
F1590       F  0.71573790  0.81766065  0.83276982    -0.15800
F1591       F  0.67826322  0.80357036  0.79820221    -0.19300
F1592       F  0.76453162  0.68177080  0.83664237    -0.22700
F1593       F  0.72731690  0.66689114  0.80274182    -0.24200
F1594       F  0.72451386  0.67430209  0.86780351    -0.18200
F1595       F  0.84358093  0.70617947  0.71369969    -0.20600
F1596       F  0.83527650  0.66559512  0.74477729    -0.21800
F1597       F  0.83652852  0.70533545  0.77890046    -0.19000
F1598       F  0.70028267  0.69198704  0.68390079    -0.19100
F1599       F  0.70207979  0.73356783  0.71333776    -0.22900
F1600       F  0.69422633  0.69506181  0.74918098    -0.24500
C1601       C  0.48283313  0.75518117  0.32738067    -0.11300
C1602       C  0.49222057  0.75132944  0.36609473     0.11300
C1603       C  0.48365597  0.76983414  0.39618681    -0.03100
C1604       C  0.46443120  0.79088304  0.38666073    -0.05900
C1605       C  0.45452539  0.79432382  0.34798501    -0.16600
C1606       C  0.46382885  0.77618653  0.31767266     0.02300
C1607       C  0.51101927  0.72742623  0.37322801     0.12200
C1608       C  0.49514493  0.76763151  0.43776672     0.62800
H1609       H  0.45737043  0.80521232  0.40918171     0.12200
C1610       C  0.45288860  0.77798842  0.27563676     0.55000
H1611       H  0.49025600  0.74104904  0.30482585     0.08000
C1612       C  0.50097966  0.69990088  0.37394133    -0.05800
C1613       C  0.52009500  0.67786418  0.37216413    -0.06500
C1614       C  0.54878972  0.68246527  0.37002579    -0.16100
C1615       C  0.55882592  0.71015745  0.37276941    -0.01700
C1616       C  0.53957302  0.73218499  0.37356543    -0.09200
C1617       C  0.47013858  0.69388670  0.37544480     0.65000
H1618       H  0.51263747  0.65671818  0.37078597     0.10500
C1619       C  0.58950288  0.71680731  0.37308049     0.63400
H1620       H  0.54662950  0.75347502  0.37271471     0.07900
F1621       F  0.42432761  0.77649076  0.27594321    -0.19600
F1622       F  0.46272578  0.75651579  0.25226202    -0.15800
F1623       F  0.46096715  0.80262944  0.25842423    -0.19300
F1624       F  0.52339368  0.77200249  0.43718967    -0.22700
F1625       F  0.48998035  0.74158025  0.45301904    -0.24200
F1626       F  0.48339561  0.78711587  0.46276985    -0.18200
F1627       F  0.60182861  0.70642269  0.33948690    -0.20600
F1628       F  0.60180136  0.70511975  0.40599543    -0.21800
F1629       F  0.59434959  0.74510816  0.37419602    -0.19000
F1630       F  0.46493541  0.66579705  0.37933846    -0.19100
F1631       F  0.45741694  0.70295936  0.34124420    -0.22900
F1632       F  0.45839382  0.70736182  0.40736195    -0.24500
C1633       C  0.36179035  0.00613223  0.30036447    -0.11300
C1634       C  0.37280570  0.01772743  0.26584597     0.11300
C1635       C  0.39583138  0.00497151  0.24744122    -0.03100
C1636       C  0.40741900  0.98119729  0.26475385    -0.05900
C1637       C  0.39720232  0.96975824  0.30009889    -0.16600
C1638       C  0.37339351  0.98205999  0.31780272     0.02300
C1639       C  0.36062741  0.04366218  0.24941737     0.12200
C1640       C  0.40851286  0.01671051  0.20988919     0.62800
H1641       H  0.42514062  0.97153423  0.25078251     0.12200
C1642       C  0.36034048  0.97032427  0.35490596     0.55000
H1643       H  0.34407310  0.01629401  0.31364486     0.08000
C1644       C  0.33863125  0.04330830  0.22179575    -0.05800
C1645       C  0.33331022  0.06740552  0.19931946    -0.06500
C1646       C  0.34926644  0.09148894  0.20415044    -0.16100
C1647       C  0.36853631  0.09281463  0.23579697    -0.01700
C1648       C  0.37408614  0.06867749  0.25761086    -0.09200
C1649       C  0.32169734  0.01725754  0.21528350     0.65000
H1650       H  0.31824380  0.06682324  0.17564646     0.10500
C1651       C  0.38457632  0.11872072  0.24681156     0.63400
H1652       H  0.39028743  0.06893635  0.27979396     0.07900
F1653       F  0.35034220  0.94399910  0.34731417    -0.19600
F1654       F  0.33839007  0.98646632  0.36790828    -0.15800
F1655       F  0.37971384  0.96911371  0.38492799    -0.19300
F1656       F  0.41956173  0.04259666  0.21739577    -0.22700
F1657       F  0.38856728  0.01907697  0.18080695    -0.24200
F1658       F  0.42951778  0.99994947  0.19539068    -0.18200
F1659       F  0.38248576  0.12315971  0.28705000    -0.20600
F1660       F  0.37476076  0.14229581  0.22814938    -0.21800
F1661       F  0.41216996  0.11499979  0.23725273    -0.19000
F1662       F  0.30198183  0.02089667  0.18606034    -0.19100
F1663       F  0.30822343  0.01045827  0.24989860    -0.22900
F1664       F  0.33866768  0.99540167  0.20432898    -0.24500
C1665       C  0.56388657  0.87592617  0.10773417    -0.11300
C1666       C  0.53527038  0.87200194  0.10457081     0.11300
C1667       C  0.52343692  0.86393328  0.06818827    -0.03100
C1668       C  0.54125003  0.85711394  0.03686692    -0.05900
C1669       C  0.57011064  0.85893244  0.04103418    -0.16600
C1670       C  0.58165685  0.86974472  0.07618464     0.02300
C1671       C  0.51830879  0.87572247  0.14036302     0.12200
C1672       C  0.49223829  0.86286467  0.06264938     0.62800
H1673       H  0.53282264  0.84968779  0.00917902     0.12200
C1674       C  0.61244211  0.87534824  0.07992817     0.55000
H1675       H  0.57223811  0.88312585  0.13558681     0.08000
C1676       C  0.51448885  0.85383619  0.16752390    -0.05800
C1677       C  0.49783398  0.85864804  0.20070231    -0.06500
C1678       C  0.48593906  0.88480988  0.20826702    -0.16100
C1679       C  0.49052809  0.90699170  0.18134018    -0.01700
C1680       C  0.50656768  0.90181498  0.14752664    -0.09200
C1681       C  0.52849628  0.82576498  0.16191561     0.65000
H1682       H  0.49464841  0.84206857  0.22172826     0.10500
C1683       C  0.47861314  0.93592910  0.18765448     0.63400
H1684       H  0.51043375  0.91821777  0.12643227     0.07900
F1685       F  0.61851205  0.89016654  0.11383928    -0.19600
F1686       F  0.62129613  0.89075244  0.04792110    -0.15800
F1687       F  0.62697396  0.85060311  0.08125837    -0.19300
F1688       F  0.48125745  0.88921332  0.06731890    -0.22700
F1689       F  0.48043825  0.84539002  0.09017835    -0.24200
F1690       F  0.48505604  0.85338492  0.02546562    -0.18200
F1691       F  0.49109754  0.94821608  0.21996889    -0.20600
F1692       F  0.45034021  0.93439462  0.19364664    -0.21800
F1693       F  0.48305342  0.95299088  0.15545909    -0.19000
F1694       F  0.52181369  0.80736381  0.19175201    -0.19100
F1695       F  0.55690738  0.82902718  0.16198345    -0.22900
F1696       F  0.52050047  0.81409951  0.12643982    -0.24500
C1697       C  0.34733471  0.76746001  0.09636704    -0.11300
C1698       C  0.35883313  0.75712965  0.13140392     0.11300
C1699       C  0.36300259  0.72819835  0.13600433    -0.03100
C1700       C  0.35830811  0.71073110  0.10339133    -0.05900
C1701       C  0.34752082  0.72120431  0.06794231    -0.16600
C1702       C  0.34097267  0.74978182  0.06463630     0.02300
C1703       C  0.36583646  0.77713309  0.16311324     0.12200
C1704       C  0.37125792  0.71587918  0.17557258     0.62800
H1705       H  0.36241210  0.68866083  0.10554812     0.12200
C1706       C  0.32782804  0.76153192  0.02744630     0.55000
H1707       H  0.34340934  0.78955218  0.09416179     0.08000
C1708       C  0.39183865  0.79045523  0.16479300    -0.05800
C1709       C  0.39748058  0.80812274  0.19683742    -0.06500
C1710       C  0.37805954  0.81277639  0.22710695    -0.16100
C1711       C  0.35142942  0.80035213  0.22412211    -0.01700
C1712       C  0.34585980  0.78280573  0.19187770    -0.09200
C1713       C  0.41359059  0.78577534  0.13306758     0.65000
H1714       H  0.41760501  0.81780144  0.19906331     0.10500
C1715       C  0.32877776  0.80531747  0.25442256     0.63400
H1716       H  0.32596402  0.77268170  0.18929964     0.07900
F1717       F  0.32482222  0.79007151  0.02938009    -0.19600
F1718       F  0.30181652  0.75021291  0.02224658    -0.15800
F1719       F  0.34410020  0.75526628  0.99504325    -0.19300
F1720       F  0.35062021  0.72118150  0.20283181    -0.22700
F1721       F  0.39567462  0.72748309  0.18880189    -0.24200
F1722       F  0.37496578  0.68741163  0.17335777    -0.18200
F1723       F  0.32604105  0.83342053  0.26194377    -0.20600
F1724       F  0.33516135  0.79145632  0.28898479    -0.21800
F1725       F  0.30337029  0.79576020  0.24136372    -0.19000
F1726       F  0.43747891  0.80070698  0.14042692    -0.19100
F1727       F  0.40330387  0.79402236  0.09682752    -0.22900
F1728       F  0.42064055  0.75797709  0.13123117    -0.24500
C1729       C  0.28562924  0.84326497  0.53972334    -0.11300
C1730       C  0.27983025  0.86731390  0.51805072     0.11300
C1731       C  0.25252420  0.87819243  0.51760325    -0.03100
C1732       C  0.23154129  0.86357762  0.53763997    -0.05900
C1733       C  0.23714553  0.83828702  0.55673995    -0.16600
C1734       C  0.26486718  0.82866845  0.55953121     0.02300
C1735       C  0.30153288  0.87625874  0.48991704     0.12200
C1736       C  0.24545031  0.90438770  0.49478361     0.62800
H1737       H  0.21029069  0.87074712  0.53612727     0.12200
C1738       C  0.27268882  0.80231588  0.58153960     0.55000
H1739       H  0.30644904  0.83482586  0.53875816     0.08000
C1740       C  0.32679934  0.88848877  0.50216086    -0.05800
C1741       C  0.34890789  0.88968263  0.47503324    -0.06500
C1742       C  0.34643071  0.87847842  0.43698658    -0.16100
C1743       C  0.32078030  0.86747566  0.42431385    -0.01700
C1744       C  0.29878306  0.86653448  0.45115196    -0.09200
C1745       C  0.33040081  0.90005533  0.54356099     0.65000
H1746       H  0.36865952  0.89826560  0.48381791     0.10500
C1747       C  0.31675343  0.85609358  0.38285847     0.63400
H1748       H  0.27965314  0.85643610  0.44280379     0.07900
F1749       F  0.30073584  0.80148125  0.58993403    -0.19600
F1750       F  0.26631433  0.77939771  0.55875064    -0.15800
F1751       F  0.25862964  0.80087863  0.61697817    -0.19300
F1752       F  0.24850809  0.89981943  0.45475946    -0.22700
F1753       F  0.26283804  0.92564211  0.50618516    -0.24200
F1754       F  0.21845580  0.91289171  0.50149429    -0.18200
F1755       F  0.33155224  0.83167845  0.37846878    -0.20600
F1756       F  0.32576567  0.87524504  0.35538886    -0.21800
F1757       F  0.28920446  0.85050373  0.37498571    -0.19000
F1758       F  0.35656376  0.91100181  0.54914601    -0.19100
F1759       F  0.32662113  0.87949443  0.57140012    -0.22900
F1760       F  0.31124309  0.92094875  0.54990190    -0.24500
C1761       C  0.46355773  0.24697168  0.64059986    -0.11300
C1762       C  0.48945813  0.24901473  0.65892615     0.11300
C1763       C  0.49769623  0.27440633  0.67598228    -0.03100
C1764       C  0.47818783  0.29603453  0.67848432    -0.05900
C1765       C  0.45099968  0.29317036  0.66395008    -0.16600
C1766       C  0.44405965  0.26878224  0.64241086     0.02300
C1767       C  0.50653437  0.22357262  0.66332738     0.12200
C1768       C  0.52678219  0.27823950  0.69222596     0.62800
H1769       H  0.48384241  0.31519345  0.69301729     0.12200
C1770       C  0.41621073  0.26518898  0.62228858     0.55000
H1771       H  0.45830393  0.22751872  0.62647967     0.08000
C1772       C  0.50216394  0.20522678  0.69518359    -0.05800
C1773       C  0.52043004  0.18287864  0.70022594    -0.06500
C1774       C  0.54292287  0.17813446  0.67467261    -0.16100
C1775       C  0.54667252  0.19609567  0.64172026    -0.01700
C1776       C  0.52805722  0.21845496  0.63655551    -0.09200
C1777       C  0.47852847  0.20949022  0.72423961     0.65000
H1778       H  0.51754553  0.16923918  0.72522437     0.10500
C1779       C  0.56987484  0.19198742  0.61198788     0.63400
H1780       H  0.53059088  0.23271847  0.61216022     0.07900
F1781       F  0.41418533  0.23984080  0.60325512    -0.19600
F1782       F  0.41262872  0.28575957  0.59428512    -0.15800
F1783       F  0.39515487  0.26667906  0.64975566    -0.19300
F1784       F  0.54593085  0.27336889  0.66272518    -0.22700
F1785       F  0.53154142  0.25991985  0.72290325    -0.24200
F1786       F  0.53097919  0.30488601  0.70613185    -0.18200
F1787       F  0.56735005  0.20983334  0.58016124    -0.20600
F1788       F  0.56940900  0.16512712  0.59755251    -0.21800
F1789       F  0.59514581  0.19709368  0.62970693    -0.19000
F1790       F  0.47810083  0.18914775  0.75307376    -0.19100
F1791       F  0.45350274  0.20865973  0.70450490    -0.22900
F1792       F  0.48115161  0.23489679  0.74281011    -0.24500
C1793       C  0.46050058  0.08559703  0.85457705    -0.11300
C1794       C  0.46818226  0.10603508  0.88177587     0.11300
C1795       C  0.49340052  0.12043632  0.87684059    -0.03100
C1796       C  0.50985904  0.11431274  0.84361716    -0.05900
C1797       C  0.50242839  0.09348411  0.81646446    -0.16600
C1798       C  0.47720506  0.07887271  0.82196107     0.02300
C1799       C  0.44999103  0.11056202  0.91643580     0.12200
C1800       C  0.50331752  0.14134237  0.90733350     0.62800
H1801       H  0.52921471  0.12514913  0.83931438     0.12200
C1802       C  0.46761532  0.05641634  0.79359731     0.55000
H1803       H  0.44134638  0.07456045  0.85964152     0.08000
C1804       C  0.42627617  0.12774964  0.91470237    -0.05800
C1805       C  0.40990770  0.13051741  0.94870622    -0.06500
C1806       C  0.41674276  0.11733287  0.98465595    -0.16100
C1807       C  0.44040367  0.09955438  0.98582995    -0.01700
C1808       C  0.45626865  0.09624220  0.95126806    -0.09200
C1809       C  0.41853052  0.14351402  0.87736659     0.65000
H1810       H  0.39172901  0.14368276  0.94747344     0.10500
C1811       C  0.44971973  0.08468026  0.02312664     0.63400
H1812       H  0.47421341  0.08269868  0.95117665     0.07900
F1813       F  0.44082873  0.04799491  0.80150966    -0.19600
F1814       F  0.48468111  0.03342568  0.79689168    -0.15800
F1815       F  0.46821474  0.06622286  0.75524740    -0.19300
F1816       F  0.50877207  0.12787972  0.94251457    -0.22700
F1817       F  0.48332684  0.16142133  0.91379817    -0.24200
F1818       F  0.52726519  0.15457299  0.89540984    -0.18200
F1819       F  0.42963395  0.06609214  0.03493509    -0.20600
F1820       F  0.45452219  0.10381144  0.05279111    -0.21800
F1821       F  0.47400708  0.06985268  0.01744621    -0.19000
F1822       F  0.39472264  0.15924838  0.88229005    -0.19100
F1823       F  0.41398282  0.12511373  0.84677084    -0.22900
F1824       F  0.43965699  0.16128658  0.86696289    -0.24500
C1825       C  0.65563052  0.92438065  0.80341377    -0.11300
C1826       C  0.63181516  0.92718616  0.77993425     0.11300
C1827       C  0.61300734  0.90475295  0.77739240    -0.03100
C1828       C  0.61773236  0.88114702  0.80083140    -0.05900
C1829       C  0.63968195  0.87966930  0.82807018    -0.16600
C1830       C  0.65942333  0.90144326  0.82885558     0.02300
C1831       C  0.62465051  0.95500952  0.76328780     0.12200
C1832       C  0.58715747  0.90625115  0.75175704     0.62800
H1833       H  0.60310677  0.86419292  0.79988756     0.12200
C1834       C  0.68297068  0.90177696  0.85853821     0.55000
H1835       H  0.67014737  0.94142575  0.80390091     0.08000
C1836       C  0.61419006  0.97649494  0.78785114    -0.05800
C1837       C  0.60229922  0.00002394  0.77018493    -0.06500
C1838       C  0.60010327  0.00269563  0.72915690    -0.16100
C1839       C  0.61194470  0.98204994  0.70441467    -0.01700
C1840       C  0.62477124  0.95878679  0.72215407    -0.09200
C1841       C  0.61448816  0.97428688  0.83259980     0.65000
H1842       H  0.59346612  0.01625118  0.78845082     0.10500
C1843       C  0.60932501  0.98351543  0.65978290     0.63400
H1844       H  0.63353444  0.94249210  0.70398363     0.07900
F1845       F  0.67240968  0.90052353  0.89643196    -0.19600
F1846       F  0.69863139  0.92569118  0.85568232    -0.15800
F1847       F  0.70030887  0.87933703  0.85211538    -0.19300
F1848       F  0.59452837  0.90833860  0.71249632    -0.22700
F1849       F  0.57131879  0.92906708  0.76223760    -0.24200
F1850       F  0.57083487  0.88287485  0.75574820    -0.18200
F1851       F  0.62276289  0.00678168  0.64583871    -0.20600
F1852       F  0.58167911  0.98482976  0.64923539    -0.21800
F1853       F  0.62088288  0.96050277  0.64154782    -0.19000
F1854       F  0.60159933  0.99677188  0.85035887    -0.19100
F1855       F  0.64147603  0.97344581  0.84604742    -0.22900
F1856       F  0.60084063  0.95053946  0.84439088    -0.24500
C1857       C  0.48849996  0.99558164  0.56374458    -0.11300
C1858       C  0.50720934  0.98663127  0.53496047     0.11300
C1859       C  0.53520441  0.99504827  0.53676111    -0.03100
C1860       C  0.54394960  0.01077476  0.56939995    -0.05900
C1861       C  0.52526935  0.01951382  0.59869963    -0.16600
C1862       C  0.49677757  0.01257921  0.59517099     0.02300
C1863       C  0.49562164  0.97134279  0.50098115     0.12200
C1864       C  0.55539820  0.98845771  0.50370795     0.62800
H1865       H  0.56545349  0.01675733  0.57195929     0.12200
C1866       C  0.47473854  0.02416027  0.62276279     0.55000
H1867       H  0.46699910  0.98964454  0.56067581     0.08000
C1868       C  0.49049373  0.94244630  0.50207791    -0.05800
C1869       C  0.47725618  0.93002565  0.46953498    -0.06500
C1870       C  0.46919978  0.94571563  0.43657207    -0.16100
C1871       C  0.47393861  0.97474948  0.43599804    -0.01700
C1872       C  0.48694364  0.98706787  0.46856287    -0.09200
C1873       C  0.49875910  0.92499926  0.53752609     0.65000
H1874       H  0.47348400  0.90788245  0.46925261     0.10500
C1875       C  0.46493026  0.99282030  0.40154655     0.63400
H1876       H  0.49048420  0.00925418  0.46912450     0.07900
F1877       F  0.47661149  0.01149126  0.65925882    -0.19600
F1878       F  0.44829908  0.01970170  0.60832934    -0.15800
F1879       F  0.47806502  0.05252289  0.62697611    -0.19300
F1880       F  0.54701626  0.00175900  0.46957957    -0.22700
F1881       F  0.55635054  0.96020387  0.49688984    -0.24200
F1882       F  0.58195100  0.99721790  0.51256729    -0.18200
F1883       F  0.46818909  0.02080060  0.40967419    -0.20600
F1884       F  0.43729290  0.98829581  0.39327138    -0.21800
F1885       F  0.48061538  0.98658723  0.36861747    -0.19000
F1886       F  0.49356262  0.89708841  0.53139537    -0.19100
F1887       F  0.48397373  0.93349556  0.57030182    -0.22900
F1888       F  0.52670186  0.92793092  0.54511802    -0.24500
C1889       C  0.62740697  0.20122050  0.83280580    -0.11300
C1890       C  0.62482240  0.18890003  0.87004235     0.11300
C1891       C  0.61799125  0.16045874  0.87297932    -0.03100
C1892       C  0.61332868  0.14536429  0.83808478    -0.05900
C1893       C  0.61599717  0.15759955  0.80064294    -0.16600
C1894       C  0.62392717  0.18590319  0.79780290     0.02300
C1895       C  0.62878599  0.20663192  0.90542476     0.12200
C1896       C  0.61536380  0.14620428  0.91275822     0.62800
H1897       H  0.60719936  0.12380075  0.83978270     0.12200
C1898       C  0.62811287  0.20022358  0.75831692     0.55000
H1899       H  0.63229534  0.22311625  0.83151317     0.08000
C1900       C  0.65538152  0.21472448  0.91845338    -0.05800
C1901       C  0.65742280  0.23179015  0.95195230    -0.06500
C1902       C  0.63390938  0.24108815  0.97259629    -0.16100
C1903       C  0.60718207  0.23307665  0.95926052    -0.01700
C1904       C  0.60520416  0.21613281  0.92548823    -0.09200
C1905       C  0.68153249  0.20504458  0.89752304     0.65000
H1906       H  0.67763242  0.23822353  0.96222962     0.10500
C1907       C  0.58085580  0.24161430  0.98073311     0.63400
H1908       H  0.58510250  0.21010939  0.91427424     0.07900
F1909       F  0.64975966  0.18773971  0.73828173    -0.19600
F1910       F  0.63458404  0.22802082  0.76278233    -0.15800
F1911       F  0.60421287  0.19853497  0.73596512    -0.19300
F1912       F  0.59300054  0.15698888  0.93310734    -0.22700
F1913       F  0.63913868  0.15025074  0.93471466    -0.24200
F1914       F  0.61149163  0.11788669  0.90875591    -0.18200
F1915       F  0.57633647  0.26978827  0.97618135    -0.20600
F1916       F  0.58310861  0.23537138  0.02045086    -0.21800
F1917       F  0.55787478  0.22786838  0.96619631    -0.19000
F1918       F  0.70518341  0.21518215  0.91546397    -0.19100
F1919       F  0.68154039  0.21412596  0.85887187    -0.22900
F1920       F  0.68294216  0.17639413  0.89796422    -0.24500
C1921       C  0.70644831  0.12875329  0.47942494    -0.11300
C1922       C  0.71043018  0.10657887  0.50561745     0.11300
C1923       C  0.73670820  0.09365409  0.50825094    -0.03100
C1924       C  0.75943400  0.10658522  0.48997621    -0.05900
C1925       C  0.75593728  0.13119276  0.46839936    -0.16600
C1926       C  0.72895403  0.14112210  0.46012923     0.02300
C1927       C  0.68831052  0.10098496  0.53482691     0.12200
C1928       C  0.74048910  0.06667622  0.53070532     0.62800
H1929       H  0.78017178  0.09849533  0.49423404     0.12200
C1930       C  0.72415871  0.16473824  0.43119563     0.55000
H1931       H  0.68591505  0.13764779  0.47656132     0.08000
C1932       C  0.68726437  0.11621066  0.57055601    -0.05800
C1933       C  0.66503509  0.11184541  0.59620897    -0.06500
C1934       C  0.64363139  0.09326506  0.58733958    -0.16100
C1935       C  0.64496221  0.07739188  0.55207548    -0.01700
C1936       C  0.66748681  0.08164581  0.52615510    -0.09200
C1937       C  0.70909119  0.13769665  0.58118724     0.65000
H1938       H  0.66382176  0.12358790  0.62343336     0.10500
C1939       C  0.62239577  0.05698227  0.54117286     0.63400
H1940       H  0.66879154  0.07034565  0.49858000     0.07900
F1941       F  0.73379978  0.18942412  0.44666959    -0.19600
F1942       F  0.69635265  0.16809317  0.42253552    -0.15800
F1943       F  0.73794858  0.15911380  0.39629229    -0.19300
F1944       F  0.72405850  0.04648136  0.51372946    -0.22700
F1945       F  0.73289014  0.06993186  0.56975009    -0.24200
F1946       F  0.76767733  0.05754001  0.52970050    -0.18200
F1947       F  0.62709977  0.04488639  0.50468903    -0.20600
F1948       F  0.59710216  0.07049048  0.53975844    -0.21800
F1949       F  0.62133482  0.03603930  0.56895593    -0.19000
F1950       F  0.70432614  0.14944540  0.61787510    -0.19100
F1951       F  0.70895660  0.15881752  0.55362573    -0.22900
F1952       F  0.73503235  0.12555662  0.58209242    -0.24500
loop_ 
_geom_bond_atom_site_label_1 
_geom_bond_atom_site_label_2 
_geom_bond_distance 
_geom_bond_site_symmetry_2 
_ccdc_geom_bond_type 
O1           Ni7   1.917       .  S
O1           C22   1.268       .  A
O2          Ni25   1.905       .  S
O2           C11   1.266       .  A
O3           Ni7   1.912       .  S
O3          Ni25   1.898       .  S
O3          Ni19   1.921       .  S
O3           H26   0.966       .  S
C4           O21   1.276       .  A
C4           O13   1.274       .  A
C4         C1861   1.480       .  S
O5          Ni24   1.936       .  S
O5           C11   1.271       .  A
O6          Ni24   1.900       .  S
O6            C8   1.269       .  A
Ni7          O10   1.928       .  S
Ni7          O12   1.910       .  S
C8           O18   1.273       .  A
C8         C1838   1.482       .  S
O9          Ni25   1.914       .  S
O9           C15   1.276       .  A
O10          C15   1.277       .  A
C11        C1797   1.489       .  S
O12          C14   1.265       .  A
O13         Ni24   1.920       .  S
C14          O20   1.268       .  A
C14        C1774   1.492       .  S
C15        C1893   1.484       .  S
H16          O17   0.966       .  S
O17         Ni25   1.909       .  S
O17         Ni19   1.914       .  S
O17         Ni24   1.904       .  S
O18         Ni19   1.937       .  S
Ni19         O23   1.926       .  S
Ni19         O21   1.910       .  S
O20         Ni25   1.911       .  S
C22          O23   1.269       .  A
C22        C1934   1.484       .  S
O27         Ni33   1.921       .  S
O27          C48   1.266       .  A
O28         Ni51   1.916       .  S
O28          C37   1.270       .  A
O29         Ni33   1.911       .  S
O29         Ni51   1.916       .  S
O29         Ni45   1.921       .  S
O29          H52   0.966       .  S
C30          O47   1.277       .  A
C30          O39   1.277       .  A
C30        C1710   1.491       .  S
O31         Ni50   1.921       .  S
O31          C37   1.269       .  A
O32         Ni50   1.914       .  S
O32          C34   1.267       .  A
Ni33         O36   1.908       .  S
Ni33         O38   1.899       .  S
C34          O44   1.266       .  A
C34        C1605   1.478       .  S
O35         Ni51   1.930       .  S
O35          C41   1.277       .  A
O36          C41   1.270       .  A
C37        C1742   1.474       .  S
O38          C40   1.270       .  A
O39         Ni50   1.933       .  S
C40          O46   1.275       .  A
C40        C1637   1.499       .  S
C41        C1870   1.474       .  S
H42          O43   0.966       .  S
O43         Ni51   1.916       .  S
O43         Ni45   1.893       .  S
O43         Ni50   1.909       .  S
O44         Ni45   1.919       .  S
Ni45         O49   1.896       .  S
Ni45         O47   1.914       .  S
O46         Ni51   1.942       .  S
C48          O49   1.264       .  A
C48        C1678   1.483       .  S
O53         Ni59   1.921       .  S
O53          C74   1.269       .  A
O54         Ni77   1.911   1_554  S
O54          C63   1.265       .  A
O55         Ni59   1.912       .  S
O55         Ni77   1.902       .  S
O55         Ni71   1.908       .  S
O55          H78   0.966       .  S
C56          O73   1.274       .  A
C56          O65   1.274       .  A
C56        C1573   1.492       .  S
O57         Ni76   1.932   1_554  S
O57          C63   1.271       .  A
O58         Ni76   1.897       .  S
O58          C60   1.267       .  A
Ni59         O62   1.930       .  S
Ni59         O64   1.905       .  S
C60          O70   1.275       .  A
C60        C1550   1.474       .  S
O61         Ni77   1.902   1_554  S
O61          C67   1.274       .  A
O62          C67   1.277   1_556  A
C63        C1518   1.505       .  S
O64          C66   1.263       .  A
O65         Ni76   1.909       .  S
C66          O72   1.270       .  A
C66        C1477   1.498       .  S
C67        C1669   1.470       .  S
H68          O69   0.966       .  S
O69         Ni77   1.908       .  S
O69         Ni71   1.922       .  S
O69         Ni76   1.909       .  S
O70         Ni71   1.939       .  S
Ni71         O75   1.927       .  S
Ni71         O73   1.920       .  S
O72         Ni77   1.922       .  S
C74          O75   1.271       .  A
C74        C1829   1.493       .  S
O79         Ni85   1.926       .  S
O79         C100   1.268       .  A
O80        Ni103   1.908       .  S
O80          C89   1.267       .  A
O81         Ni85   1.923       .  S
O81        Ni103   1.924       .  S
O81         Ni97   1.929       .  S
O81         H104   0.966       .  S
C82          O99   1.271       .  A
C82          O91   1.274       .  A
C82        C1422   1.463       .  S
O83        Ni102   1.921       .  S
O83          C89   1.267       .  A
O84        Ni102   1.911       .  S
O84          C86   1.266       .  A
Ni85         O88   1.921       .  S
Ni85         O90   1.894       .  S
C86          O96   1.270       .  A
C86        C1317   1.490       .  S
O87        Ni103   1.898       .  S
O87          C93   1.263       .  A
O88          C93   1.270       .  A
C89        C1445   1.474       .  S
O90          C92   1.272       .  A
O91        Ni102   1.927       .  S
C92          O98   1.279       .  A
C92        C1349   1.491       .  S
C93        C1582   1.476       .  S
H94          O95   0.966       .  S
O95        Ni103   1.897       .  S
O95         Ni97   1.892       .  S
O95        Ni102   1.919       .  S
O96         Ni97   1.922       .  S
Ni97        O101   1.896       .  S
Ni97         O99   1.902       .  S
O98        Ni103   1.956       .  S
C100        O101   1.263       .  A
C100       C1390   1.473       .  S
O105       Ni111   1.929       .  S
O105        C126   1.270       .  A
O106       Ni129   1.917       .  S
O106        C115   1.271       .  A
O107       Ni111   1.910       .  S
O107       Ni129   1.916       .  S
O107       Ni123   1.917       .  S
O107        H130   0.966       .  S
C108        O125   1.277       .  A
C108        O117   1.279       .  A
C108       C1253   1.500       .  S
O109       Ni128   1.931       .  S
O109        C115   1.273       .  A
O110       Ni128   1.914       .  S
O110        C112   1.266       .  A
Ni111       O114   1.915       .  S
Ni111       O116   1.904       .  S
C112        O122   1.266       .  A
C112       C1125   1.477       .  S
O113       Ni129   1.927       .  S
O113        C119   1.275       .  A
O114        C119   1.271       .  A
C115       C1285   1.479       .  S
O116        C118   1.272       .  A
O117       Ni128   1.942       .  S
C118        O124   1.277       .  A
C118       C1198   1.509   1_545  S
C119       C1221   1.482       .  S
H120        O121   0.966       .  S
O121       Ni129   1.907       .  S
O121       Ni123   1.895       .  S
O121       Ni128   1.908       .  S
O122       Ni123   1.919       .  S
Ni123       O127   1.892       .  S
Ni123       O125   1.908       .  S
O124       Ni129   1.947       .  S
C126        O127   1.261       .  A
C126       C1166   1.485       .  S
O131       Ni137   1.913       .  S
O131        C152   1.267       .  A
O132       Ni155   1.902       .  S
O132        C141   1.266       .  A
O133       Ni137   1.906       .  S
O133       Ni155   1.894       .  S
O133       Ni149   1.914       .  S
O133        H156   0.966       .  S
C134        O151   1.276       .  A
C134        O143   1.274       .  A
C134       C1230   1.481       .  S
O135       Ni154   1.935       .  S
O135        C141   1.271       .  A
O136       Ni154   1.900       .  S
O136        C138   1.268       .  A
Ni137       O140   1.924       .  S
Ni137       O142   1.909       .  S
C138        O148   1.273       .  A
C138       C1070   1.490       .  S
O139       Ni155   1.913       .  S
O139        C145   1.278       .  A
O140        C145   1.277       .  A
C141       C1102   1.479       .  S
O142        C144   1.265       .  A
O143       Ni154   1.923       .  S
C144        O150   1.270       .  A
C144       C1029   1.480       .  S
C145       C1381   1.481       .  S
H146        O147   0.966       .  S
O147       Ni155   1.908       .  S
O147       Ni149   1.917       .  S
O147       Ni154   1.909       .  S
O148       Ni149   1.939       .  S
Ni149       O153   1.922       .  S
Ni149       O151   1.918       .  S
O150       Ni155   1.921       .  S
C152        O153   1.269       .  A
C152       C1541   1.486       .  S
O157       Ni163   1.931       .  S
O157        C178   1.269       .  A
O158       Ni181   1.923       .  S
O158        C167   1.271       .  A
O159       Ni163   1.910       .  S
O159       Ni181   1.916       .  S
O159       Ni175   1.909       .  S
O159        H182   0.965       .  S
C160        O177   1.273       .  A
C160        O169   1.277       .  A
C160       C1093   1.470       .  S
O161       Ni180   1.927       .  S
O161        C167   1.269       .  A
O162       Ni180   1.908       .  S
O162        C164   1.269       .  A
Ni163       O166   1.910       .  S
Ni163       O168   1.900       .  S
C164        O174   1.269       .  A
C164       C1326   1.501       .  S
O165       Ni181   1.924       .  S
O165        C171   1.276       .  A
O166        C171   1.275       .  A
C167       C1189   1.481       .  S
O168        C170   1.268       .  A
O169       Ni180   1.932       .  S
C170        O176   1.274       .  A
C170       C1733   1.480       .  S
C171        C997   1.487       .  S
H172        O173   0.966       .  S
O173       Ni181   1.909       .  S
O173       Ni175   1.900       .  S
O173       Ni180   1.908       .  S
O174       Ni175   1.933       .  S
Ni175       O179   1.895       .  S
Ni175       O177   1.909       .  S
O176       Ni181   1.936       .  S
C178        O179   1.264       .  A
C178        C965   1.475       .  S
O183       Ni189   1.931       .  S
O183        C204   1.272       .  A
O184       Ni207   1.899   1_554  S
O184        C193   1.262       .  A
O185       Ni189   1.916       .  S
O185       Ni207   1.902       .  S
O185       Ni201   1.913       .  S
O185        H208   0.966       .  S
C186        O203   1.276       .  A
C186        O195   1.270       .  A
C186       C1006   1.478       .  S
O187       Ni206   1.926   1_554  S
O187        C193   1.266       .  A
O188       Ni206   1.894       .  S
O188        C190   1.268       .  A
Ni189       O192   1.946       .  S
Ni189       O194   1.904       .  S
C190        O200   1.274       .  A
C190        C878   1.487       .  S
O191       Ni207   1.891   1_554  S
O191        C197   1.267       .  A
O192        C197   1.277   1_556  A
C193       C1701   1.473       .  S
O194        C196   1.263       .  A
O195       Ni206   1.911       .  S
C196        O202   1.274       .  A
C196       C1486   1.501       .  S
C197        C910   1.483       .  S
H198        O199   0.966       .  S
O199       Ni207   1.909       .  S
O199       Ni201   1.917       .  S
O199       Ni206   1.919       .  S
O200       Ni201   1.939       .  S
Ni201       O205   1.908       .  S
Ni201       O203   1.926       .  S
O202       Ni207   1.932       .  S
C204        O205   1.270       .  A
C204        C933   1.476       .  S
O209       Ni215   1.940       .  S
O209        C230   1.275       .  A
O210       Ni233   1.900       .  S
O210        C219   1.265       .  A
O211       Ni215   1.902       .  S
O211       Ni233   1.897       .  S
O211       Ni227   1.902       .  S
O211        H234   0.966       .  S
C212        O229   1.274       .  A
C212        O221   1.276       .  A
C212        C773   1.473       .  S
O213       Ni232   1.944       .  S
O213        C219   1.272       .  A
O214       Ni232   1.901       .  S
O214        C216   1.270       .  A
Ni215       O218   1.932       .  S
Ni215       O220   1.912       .  S
C216        O226   1.273       .  A
C216        C750   1.496       .  S
O217       Ni233   1.901       .  S
O217        C223   1.271       .  A
O218        C223   1.281       .  A
C219       C1262   1.499       .  S
O220        C222   1.267       .  A
O221       Ni232   1.923       .  S
C222        O228   1.272       .  A
C222        C709   1.501       .  S
C223        C805   1.476       .  S
H224        O225   0.966       .  S
O225       Ni233   1.904       .  S
O225       Ni227   1.917       .  S
O225       Ni232   1.908       .  S
O226       Ni227   1.940       .  S
Ni227       O231   1.912       .  S
Ni227       O229   1.918       .  S
O228       Ni233   1.927       .  S
C230        O231   1.271       .  A
C230        C837   1.487       .  S
O235       Ni241   1.941       .  S
O235        C256   1.274       .  A
O236       Ni259   1.925       .  S
O236        C245   1.275       .  A
O237       Ni241   1.897       .  S
O237       Ni259   1.906       .  S
O237       Ni253   1.898       .  S
O237        H260   0.965       .  S
C238        O255   1.274       .  A
C238        O247   1.278       .  A
C238       C1806   1.498   1_554  S
O239       Ni258   1.925       .  S
O239        C245   1.272       .  A
O240       Ni258   1.918       .  S
O240        C242   1.269       .  A
Ni241       O244   1.916       .  S
Ni241       O246   1.900       .  S
C242        O252   1.266       .  A
C242        C645   1.485       .  S
O243       Ni259   1.927       .  S
O243        C249   1.278       .  A
O244        C249   1.277       .  A
C245       C1646   1.482       .  S
O246        C248   1.271       .  A
O247       Ni258   1.935       .  S
C248        O254   1.276       .  A
C248       C1294   1.502       .  S
C249        C782   1.503       .  S
H250        O251   0.966       .  S
O251       Ni259   1.916       .  S
O251       Ni253   1.892       .  S
O251       Ni258   1.906       .  S
O252       Ni253   1.917       .  S
Ni253       O257   1.888       .  S
Ni253       O255   1.905       .  S
O254       Ni259   1.945       .  S
C256        O257   1.260       .  A
C256        C677   1.482   1_554  S
O261       Ni267   1.930       .  S
O261        C282   1.271       .  A
O262       Ni285   1.917       .  S
O262        C271   1.272       .  A
O263       Ni267   1.903       .  S
O263       Ni285   1.913       .  S
O263       Ni279   1.910       .  S
O263        H286   0.966       .  S
C264        O281   1.274       .  A
C264        O273   1.280       .  A
C264       C1509   1.483       .  S
O265       Ni284   1.929       .  S
O265        C271   1.273       .  A
O266       Ni284   1.915       .  S
O266        C268   1.267       .  A
Ni267       O270   1.907       .  S
Ni267       O272   1.903       .  S
C268        O278   1.270       .  A
C268       C1614   1.492       .  S
O269       Ni285   1.937       .  S
O269        C275   1.280       .  A
O270        C275   1.274       .  A
C271       C1358   1.482       .  S
O272        C274   1.271       .  A
O273       Ni284   1.938       .  S
C274        O280   1.274       .  A
C274        C590   1.500       .  S
C275        C622   1.498       .  S
H276        O277   0.966       .  S
O277       Ni285   1.918       .  S
O277       Ni279   1.895       .  S
O277       Ni284   1.909       .  S
O278       Ni279   1.921       .  S
Ni279       O283   1.900       .  S
Ni279       O281   1.912       .  S
O280       Ni285   1.939       .  S
C282        O283   1.262       .  A
C282        C901   1.490       .  S
O287       Ni293   1.937       .  S
O287        C308   1.274       .  A
O288       Ni311   1.901       .  S
O288        C297   1.263       .  A
O289       Ni293   1.909       .  S
O289       Ni311   1.895       .  S
O289       Ni305   1.900       .  S
O289        H312   0.967       .  S
C290        O307   1.273       .  A
C290        O299   1.272       .  A
C290        C613   1.473       .  S
O291       Ni310   1.931       .  S
O291        C297   1.270       .  A
O292       Ni310   1.901       .  S
O292        C294   1.268       .  A
Ni293       O296   1.948       .  S
Ni293       O298   1.915       .  S
C294        O304   1.273       .  A
C294        C942   1.479       .  S
O295       Ni311   1.895       .  S
O295        C301   1.271       .  A
O296        C301   1.279       .  A
C297        C558   1.489       .  S
O298        C300   1.267       .  A
O299       Ni310   1.911       .  S
C300        O306   1.271       .  A
C300       C1765   1.493       .  S
C301        C686   1.473       .  S
H302        O303   0.966       .  S
O303       Ni311   1.913       .  S
O303       Ni305   1.921       .  S
O303       Ni310   1.913       .  S
O304       Ni305   1.927       .  S
Ni305       O309   1.916       .  S
Ni305       O307   1.917       .  S
O306       Ni311   1.928       .  S
C308        O309   1.271       .  A
C308        C741   1.483       .  S
O313       Ni319   1.924       .  S
O313        C334   1.272       .  A
O314       Ni337   1.906       .  S
O314        C323   1.265       .  A
O315       Ni319   1.913       .  S
O315       Ni337   1.911       .  S
O315       Ni331   1.917       .  S
O315        H338   0.966       .  S
C316        O333   1.278       .  A
C316        O325   1.273       .  A
C316        C526   1.484       .  S
O317       Ni336   1.932       .  S
O317        C323   1.268       .  A
O318       Ni336   1.901       .  S
O318        C320   1.268       .  A
Ni319       O322   1.934       .  S
Ni319       O324   1.906       .  S
C320        O330   1.270       .  A
C320       C1925   1.472       .  S
O321       Ni337   1.896       .  S
O321        C327   1.268       .  A
O322        C327   1.272       .  A
C323        C494   1.490       .  S
O324        C326   1.266       .  A
O325       Ni336   1.914       .  S
C326        O332   1.273       .  A
C326        C718   1.496       .  S
C327       C1157   1.479       .  S
H328        O329   0.966       .  S
O329       Ni337   1.902       .  S
O329       Ni331   1.914       .  S
O329       Ni336   1.909       .  S
O330       Ni331   1.926       .  S
Ni331       O335   1.914       .  S
Ni331       O333   1.926       .  S
O332       Ni337   1.935       .  S
C334        O335   1.270       .  A
C334       C1061   1.484       .  S
O339       Ni345   1.923       .  S
O339        C360   1.271       .  A
O340       Ni363   1.908       .  S
O340        C349   1.268       .  A
O341       Ni345   1.917       .  S
O341       Ni363   1.919       .  S
O341       Ni357   1.937       .  S
O341        H364   0.966       .  S
C342        O359   1.271       .  A
C342        O351   1.278       .  A
C342        C549   1.476   1_554  S
O343       Ni362   1.936       .  S
O343        C349   1.273       .  A
O344       Ni362   1.914       .  S
O344        C346   1.268       .  A
Ni345       O348   1.933       .  S
Ni345       O350   1.896       .  S
C346        O356   1.271       .  A
C346        C654   1.484       .  S
O347       Ni363   1.908       .  S
O347        C353   1.265       .  A
O348        C353   1.268       .  A
C349        C581   1.479       .  S
O350        C352   1.273       .  A
O351       Ni362   1.940       .  S
C352        O358   1.282       .  A
C352        C462   1.507       .  S
C353        C517   1.490       .  S
H354        O355   0.966       .  S
O355       Ni363   1.896       .  S
O355       Ni357   1.895       .  S
O355       Ni362   1.913       .  S
O356       Ni357   1.932       .  S
Ni357       O361   1.901       .  S
Ni357       O359   1.904       .  S
O358       Ni363   1.964       .  S
C360        O361   1.263       .  A
C360       C1902   1.487   1_554  S
O365       Ni371   1.926       .  S
O365        C386   1.272       .  A
O366       Ni389   1.893       .  S
O366        C375   1.260       .  A
O367       Ni371   1.914       .  S
O367       Ni389   1.891       .  S
O367       Ni383   1.913       .  S
O367        H390   0.966       .  S
C368        O385   1.276       .  A
C368        O377   1.276       .  A
C368        C421   1.481       .  S
O369       Ni388   1.936       .  S
O369        C375   1.272       .  A
O370       Ni388   1.901       .  S
O370        C372   1.268       .  A
Ni371       O374   1.943       .  S
Ni371       O376   1.912       .  S
C372        O382   1.279       .  A
C372        C846   1.492       .  S
O373       Ni389   1.905       .  S
O373        C379   1.272       .  A
O374        C379   1.281       .  A
C375       C1413   1.474       .  S
O376        C378   1.265       .  A
O377       Ni388   1.916       .  S
C378        O384   1.266       .  A
C378       C1038   1.486       .  S
C379        C974   1.497       .  S
H380        O381   0.966       .  S
O381       Ni389   1.907       .  S
O381       Ni383   1.908       .  S
O381       Ni388   1.902       .  S
O382       Ni383   1.951       .  S
Ni383       O387   1.914       .  S
Ni383       O385   1.923       .  S
O384       Ni389   1.914       .  S
C386        O387   1.272       .  A
C386        C869   1.486       .  S
O391       Ni397   1.929       .  S
O391        C412   1.269       .  A
O392       Ni415   1.911       .  S
O392        C401   1.268       .  A
O393       Ni397   1.899       .  S
O393       Ni415   1.904       .  S
O393       Ni409   1.908       .  S
O393        H416   0.962       .  S
C394        O411   1.277       .  A
C394        O403   1.276       .  A
C394        C485   1.498       .  S
O395       Ni414   1.934       .  S
O395        C401   1.273       .  A
O396       Ni414   1.918       .  S
O396        C398   1.270       .  A
Ni397       O400   1.913       .  S
Ni397       O402   1.902       .  S
C398        O408   1.268       .  A
C398       C1134   1.484       .  S
O399       Ni415   1.928       .  S
O399        C405   1.277       .  A
O400        C405   1.276       .  A
C401        C453   1.482       .  S
O402        C404   1.268       .  A
O403       Ni414   1.932       .  S
C404        O410   1.271       .  A
C404       C1454   1.470       .  S
C405        C430   1.488       .  S
H406        O407   0.966       .  S
O407       Ni415   1.913       .  S
O407       Ni409   1.899       .  S
O407       Ni414   1.907       .  S
O408       Ni409   1.920       .  S
Ni409       O413   1.902       .  S
Ni409       O411   1.913       .  S
O410       Ni415   1.927       .  S
C412        O413   1.267       .  A
C412        C814   1.491       .  S
C417        C418   1.402   1_455  A
C417        C422   1.408       .  A
C417        H427   1.083       .  S
C418        C423   1.481       .  S
C418        C419   1.413       .  A
C419        C420   1.404       .  A
C419        C424   1.520       .  S
C420        C421   1.406   1_655  A
C420        H425   1.083       .  S
C421        C422   1.419       .  A
C422        C426   1.518       .  S
C423        C428   1.412   1_554  A
C423        C432   1.403       .  A
C424        F440   1.382       .  S
C424        F441   1.382       .  S
C424        F442   1.385       .  S
C426        F437   1.382       .  S
C426        F438   1.385       .  S
C426        F439   1.383       .  S
C428        C429   1.401       .  A
C428        C433   1.521   1_655  S
C429        C430   1.408       .  A
C429        H434   1.082       .  S
C430        C431   1.421       .  A
C431        C432   1.410   1_556  A
C431        C435   1.519       .  S
C432        H436   1.083       .  S
C433        F446   1.385       .  S
C433        F447   1.382       .  S
C433        F448   1.382   1_455  S
C435        F443   1.383       .  S
C435        F444   1.383       .  S
C435        F445   1.385   1_556  S
C449        C450   1.402       .  A
C449        C454   1.405   1_554  A
C449        H459   1.084       .  S
C450        C455   1.488       .  S
C450        C451   1.415   1_554  A
C451        C452   1.411       .  A
C451        C456   1.518       .  S
C452        C453   1.406       .  A
C452        H457   1.083       .  S
C453        C454   1.417       .  A
C454        C458   1.517   1_556  S
C455        C460   1.413   1_554  A
C455        C464   1.404       .  A
C456        F472   1.382       .  S
C456        F473   1.382       .  S
C456        F474   1.385       .  S
C458        F469   1.383   1_554  S
C458        F470   1.384       .  S
C458        F471   1.384       .  S
C460        C461   1.401   1_556  A
C460        C465   1.525       .  S
C461        C462   1.412       .  A
C461        H466   1.081       .  S
C462        C463   1.429       .  A
C463        C464   1.418       .  A
C463        C467   1.520       .  S
C464        H468   1.083       .  S
C465        F478   1.384       .  S
C465        F479   1.382       .  S
C465        F480   1.381       .  S
C467        F475   1.383       .  S
C467        F476   1.384       .  S
C467        F477   1.385       .  S
C481        C482   1.397       .  A
C481        C486   1.407       .  A
C481        H491   1.083       .  S
C482        C487   1.485       .  S
C482        C483   1.414       .  A
C483        C484   1.406       .  A
C483        C488   1.521       .  S
C484        C485   1.410       .  A
C484        H489   1.082       .  S
C485        C486   1.429       .  A
C486        C490   1.521       .  S
C487        C492   1.416       .  A
C487        C496   1.398       .  A
C488        F504   1.382       .  S
C488        F505   1.383       .  S
C488        F506   1.385       .  S
C490        F501   1.382       .  S
C490        F502   1.385       .  S
C490        F503   1.383       .  S
C492        C493   1.408       .  A
C492        C497   1.521       .  S
C493        C494   1.408       .  A
C493        H498   1.083       .  S
C494        C495   1.424       .  A
C495        C496   1.406       .  A
C495        C499   1.520       .  S
C496        H500   1.083       .  S
C497        F510   1.385       .  S
C497        F511   1.382       .  S
C497        F512   1.383       .  S
C499        F507   1.382       .  S
C499        F508   1.383       .  S
C499        F509   1.385       .  S
C513        C514   1.400       .  A
C513        C518   1.407       .  A
C513        H523   1.084       .  S
C514        C519   1.484       .  S
C514        C515   1.415       .  A
C515        C516   1.409       .  A
C515        C520   1.520       .  S
C516        C517   1.408       .  A
C516        H521   1.083       .  S
C517        C518   1.423       .  A
C518        C522   1.520       .  S
C519        C524   1.417       .  A
C519        C528   1.399       .  A
C520        F536   1.383       .  S
C520        F537   1.381       .  S
C520        F538   1.385       .  S
C522        F533   1.385       .  S
C522        F534   1.384       .  S
C522        F535   1.382       .  S
C524        C525   1.409       .  A
C524        C529   1.519       .  S
C525        C526   1.405       .  A
C525        H530   1.083       .  S
C526        C527   1.423       .  A
C527        C528   1.405       .  A
C527        C531   1.521       .  S
C528        H532   1.083       .  S
C529        F542   1.385       .  S
C529        F543   1.382       .  S
C529        F544   1.381       .  S
C531        F539   1.385       .  S
C531        F540   1.384       .  S
C531        F541   1.382       .  S
C545        C546   1.404       .  A
C545        C550   1.408       .  A
C545        H555   1.083       .  S
C546        C551   1.483       .  S
C546        C547   1.415       .  A
C547        C548   1.405       .  A
C547        C552   1.520       .  S
C548        C549   1.403       .  A
C548        H553   1.083   1_556  S
C549        C550   1.417       .  A
C550        C554   1.518       .  S
C551        C556   1.414       .  A
C551        C560   1.400       .  A
C552        F568   1.382       .  S
C552        F569   1.382       .  S
C552        F570   1.384       .  S
C554        F565   1.383       .  S
C554        F566   1.385       .  S
C554        F567   1.382       .  S
C556        C557   1.408       .  A
C556        C561   1.520       .  S
C557        C558   1.408       .  A
C557        H562   1.083       .  S
C558        C559   1.423       .  A
C559        C560   1.406       .  A
C559        C563   1.519       .  S
C560        H564   1.083       .  S
C561        F574   1.385       .  S
C561        F575   1.382       .  S
C561        F576   1.382       .  S
C563        F571   1.381       .  S
C563        F572   1.383       .  S
C563        F573   1.385       .  S
C577        C578   1.402       .  A
C577        C582   1.407       .  A
C577        H587   1.083       .  S
C578        C583   1.487       .  S
C578        C579   1.415       .  A
C579        C580   1.409       .  A
C579        C584   1.516       .  S
C580        C581   1.404       .  A
C580        H585   1.083       .  S
C581        C582   1.417       .  A
C582        C586   1.518       .  S
C583        C588   1.414       .  A
C583        C592   1.403       .  A
C584        F600   1.383       .  S
C584        F601   1.382       .  S
C584        F602   1.384       .  S
C586        F597   1.381       .  S
C586        F598   1.384       .  S
C586        F599   1.384       .  S
C588        C589   1.400       .  A
C588        C593   1.523       .  S
C589        C590   1.408       .  A
C589        H594   1.082       .  S
C590        C591   1.427       .  A
C591        C592   1.417       .  A
C591        C595   1.519       .  S
C592        H596   1.083       .  S
C593        F606   1.385       .  S
C593        F607   1.382       .  S
C593        F608   1.382       .  S
C595        F603   1.383       .  S
C595        F604   1.383       .  S
C595        F605   1.385       .  S
C609        C610   1.403       .  A
C609        C614   1.407       .  A
C609        H619   1.083       .  S
C610        C615   1.481       .  S
C610        C611   1.414       .  A
C611        C612   1.404       .  A
C611        C616   1.520       .  S
C612        C613   1.403       .  A
C612        H617   1.083       .  S
C613        C614   1.415       .  A
C614        C618   1.519       .  S
C615        C620   1.409       .  A
C615        C624   1.402       .  A
C616        F632   1.382       .  S
C616        F633   1.382       .  S
C616        F634   1.385       .  S
C618        F629   1.384       .  S
C618        F630   1.384       .  S
C618        F631   1.383       .  S
C620        C621   1.402       .  A
C620        C625   1.523       .  S
C621        C622   1.414       .  A
C621        H626   1.082       .  S
C622        C623   1.423       .  A
C623        C624   1.411       .  A
C623        C627   1.518       .  S
C624        H628   1.083       .  S
C625        F638   1.384       .  S
C625        F639   1.382       .  S
C625        F640   1.382       .  S
C627        F635   1.383       .  S
C627        F636   1.383       .  S
C627        F637   1.385       .  S
C641        C642   1.400       .  A
C641        C646   1.407       .  A
C641        H651   1.083       .  S
C642        C647   1.485       .  S
C642        C643   1.415       .  A
C643        C644   1.407       .  A
C643        C648   1.519       .  S
C644        C645   1.406       .  A
C644        H649   1.083       .  S
C645        C646   1.421       .  A
C646        C650   1.518       .  S
C647        C652   1.415       .  A
C647        C656   1.403       .  A
C648        F664   1.382       .  S
C648        F665   1.382       .  S
C648        F666   1.385       .  S
C650        F661   1.380       .  S
C650        F662   1.385       .  S
C650        F663   1.383       .  S
C652        C653   1.405       .  A
C652        C657   1.522       .  S
C653        C654   1.405       .  A
C653        H658   1.083       .  S
C654        C655   1.419       .  A
C655        C656   1.411       .  A
C655        C659   1.517       .  S
C656        H660   1.083       .  S
C657        F670   1.384       .  S
C657        F671   1.383       .  S
C657        F672   1.382       .  S
C659        F667   1.382       .  S
C659        F668   1.383       .  S
C659        F669   1.385       .  S
C673        C674   1.398       .  A
C673        C678   1.404       .  A
C673        H683   1.083       .  S
C674        C679   1.478       .  S
C674        C675   1.413       .  A
C675        C676   1.405       .  A
C675        C680   1.519       .  S
C676        C677   1.406       .  A
C676        H681   1.083       .  S
C677        C678   1.423       .  A
C678        C682   1.521       .  S
C679        C684   1.415       .  A
C679        C688   1.400       .  A
C680        F696   1.383       .  S
C680        F697   1.383       .  S
C680        F698   1.384       .  S
C682        F693   1.385       .  S
C682        F694   1.383       .  S
C682        F695   1.383   1_556  S
C684        C685   1.404       .  A
C684        C689   1.520       .  S
C685        C686   1.402       .  A
C685        H690   1.083       .  S
C686        C687   1.418       .  A
C687        C688   1.405       .  A
C687        C691   1.517       .  S
C688        H692   1.083       .  S
C689        F702   1.384       .  S
C689        F703   1.382       .  S
C689        F704   1.383       .  S
C691        F699   1.384       .  S
C691        F700   1.382       .  S
C691        F701   1.381       .  S
C705        C706   1.398       .  A
C705        C710   1.410       .  A
C705        H715   1.083   1_455  S
C706        C711   1.482   1_455  S
C706        C707   1.412       .  A
C707        C708   1.406       .  A
C707        C712   1.523       .  S
C708        C709   1.412       .  A
C708        H713   1.082       .  S
C709        C710   1.428       .  A
C710        C714   1.519       .  S
C711        C716   1.412       .  A
C711        C720   1.398       .  A
C712        F728   1.383       .  S
C712        F729   1.382   1_455  S
C712        F730   1.384       .  S
C714        F725   1.383       .  S
C714        F726   1.385       .  S
C714        F727   1.383       .  S
C716        C717   1.405       .  A
C716        C721   1.521       .  S
C717        C718   1.412       .  A
C717        H722   1.082       .  S
C718        C719   1.427       .  A
C719        C720   1.408       .  A
C719        C723   1.521       .  S
C720        H724   1.083       .  S
C721        F734   1.385       .  S
C721        F735   1.382       .  S
C721        F736   1.382       .  S
C723        F731   1.384       .  S
C723        F732   1.384       .  S
C723        F733   1.383       .  S
C737        C738   1.402       .  A
C737        C742   1.410       .  A
C737        H747   1.083       .  S
C738        C743   1.488       .  S
C738        C739   1.416       .  A
C739        C740   1.407       .  A
C739        C744   1.519       .  S
C740        C741   1.403       .  A
C740        H745   1.083       .  S
C741        C742   1.420       .  A
C742        C746   1.518       .  S
C743        C748   1.415       .  A
C743        C752   1.403       .  A
C744        F760   1.383       .  S
C744        F761   1.383       .  S
C744        F762   1.384       .  S
C746        F757   1.383       .  S
C746        F758   1.385       .  S
C746        F759   1.383       .  S
C748        C749   1.401       .  A
C748        C753   1.522       .  S
C749        C750   1.408       .  A
C749        H754   1.083       .  S
C750        C751   1.424       .  A
C751        C752   1.414       .  A
C751        C755   1.516       .  S
C752        H756   1.083       .  S
C753        F766   1.385       .  S
C753        F767   1.382       .  S
C753        F768   1.383       .  S
C755        F763   1.385       .  S
C755        F764   1.383       .  S
C755        F765   1.379       .  S
C769        C770   1.404       .  A
C769        C774   1.408       .  A
C769        H779   1.083       .  S
C770        C775   1.483       .  S
C770        C771   1.417       .  A
C771        C772   1.403       .  A
C771        C776   1.520       .  S
C772        C773   1.400       .  A
C772        H777   1.084       .  S
C773        C774   1.414       .  A
C774        C778   1.514       .  S
C775        C780   1.409       .  A
C775        C784   1.401       .  A
C776        F792   1.381       .  S
C776        F793   1.382       .  S
C776        F794   1.385       .  S
C778        F789   1.382       .  S
C778        F790   1.385       .  S
C778        F791   1.383       .  S
C780        C781   1.403       .  A
C780        C785   1.521       .  S
C781        C782   1.416       .  A
C781        H786   1.081       .  S
C782        C783   1.427       .  A
C783        C784   1.409       .  A
C783        C787   1.520       .  S
C784        H788   1.083       .  S
C785        F798   1.385       .  S
C785        F799   1.382       .  S
C785        F800   1.382       .  S
C787        F795   1.385       .  S
C787        F796   1.383       .  S
C787        F797   1.383       .  S
C801        C802   1.402       .  A
C801        C806   1.406       .  A
C801        H811   1.083       .  S
C802        C807   1.481       .  S
C802        C803   1.415       .  A
C803        C804   1.402       .  A
C803        C808   1.520   1_455  S
C804        C805   1.402       .  A
C804        H809   1.083       .  S
C805        C806   1.420       .  A
C806        C810   1.521       .  S
C807        C812   1.413       .  A
C807        C816   1.399       .  A
C808        F824   1.381       .  S
C808        F825   1.382       .  S
C808        F826   1.385       .  S
C810        F821   1.383       .  S
C810        F822   1.385       .  S
C810        F823   1.383       .  S
C812        C813   1.405   1_455  A
C812        C817   1.521       .  S
C813        C814   1.409       .  A
C813        H818   1.082       .  S
C814        C815   1.426       .  A
C815        C816   1.406   1_655  A
C815        C819   1.522       .  S
C816        H820   1.083       .  S
C817        F830   1.385       .  S
C817        F831   1.382       .  S
C817        F832   1.383       .  S
C819        F827   1.383       .  S
C819        F828   1.384       .  S
C819        F829   1.385       .  S
C833        C834   1.404       .  A
C833        C838   1.411       .  A
C833        H843   1.083       .  S
C834        C839   1.493       .  S
C834        C835   1.418       .  A
C835        C836   1.409       .  A
C835        C840   1.518       .  S
C836        C837   1.403       .  A
C836        H841   1.083       .  S
C837        C838   1.420       .  A
C838        C842   1.518       .  S
C839        C844   1.418       .  A
C839        C848   1.399       .  A
C840        F856   1.381       .  S
C840        F857   1.381       .  S
C840        F858   1.384       .  S
C842        F853   1.385       .  S
C842        F854   1.382       .  S
C842        F855   1.384       .  S
C844        C845   1.417       .  A
C844        C849   1.517       .  S
C845        C846   1.408       .  A
C845        H850   1.083       .  S
C846        C847   1.423       .  A
C847        C848   1.403       .  A
C847        C851   1.521       .  S
C848        H852   1.084       .  S
C849        F862   1.385       .  S
C849        F863   1.382       .  S
C849        F864   1.382       .  S
C851        F859   1.382       .  S
C851        F860   1.384       .  S
C851        F861   1.385       .  S
C865        C866   1.402       .  A
C865        C870   1.410       .  A
C865        H875   1.083       .  S
C866        C871   1.484       .  S
C866        C867   1.414       .  A
C867        C868   1.404       .  A
C867        C872   1.521   1_554  S
C868        C869   1.407       .  A
C868        H873   1.083       .  S
C869        C870   1.419       .  A
C870        C874   1.518       .  S
C871        C876   1.415       .  A
C871        C880   1.404   1_554  A
C872        F888   1.383       .  S
C872        F889   1.383   1_556  S
C872        F890   1.384       .  S
C874        F885   1.384       .  S
C874        F886   1.384       .  S
C874        F887   1.383       .  S
C876        C877   1.401       .  A
C876        C881   1.523       .  S
C877        C878   1.406   1_554  A
C877        H882   1.083       .  S
C878        C879   1.420       .  A
C879        C880   1.413       .  A
C879        C883   1.517       .  S
C880        H884   1.083       .  S
C881        F894   1.385       .  S
C881        F895   1.382       .  S
C881        F896   1.383       .  S
C883        F891   1.383       .  S
C883        F892   1.381       .  S
C883        F893   1.384       .  S
C897        C898   1.402       .  A
C897        C902   1.409       .  A
C897        H907   1.083       .  S
C898        C903   1.485       .  S
C898        C899   1.414       .  A
C899        C900   1.405       .  A
C899        C904   1.519       .  S
C900        C901   1.407       .  A
C900        H905   1.083       .  S
C901        C902   1.425       .  A
C902        C906   1.522       .  S
C903        C908   1.415       .  A
C903        C912   1.402       .  A
C904        F920   1.382       .  S
C904        F921   1.382       .  S
C904        F922   1.384       .  S
C906        F917   1.385       .  S
C906        F918   1.383       .  S
C906        F919   1.384       .  S
C908        C909   1.405       .  A
C908        C913   1.520       .  S
C909        C910   1.406       .  A
C909        H914   1.083       .  S
C910        C911   1.420       .  A
C911        C912   1.407       .  A
C911        C915   1.520       .  S
C912        H916   1.083       .  S
C913        F926   1.385       .  S
C913        F927   1.382       .  S
C913        F928   1.382       .  S
C915        F923   1.385       .  S
C915        F924   1.383       .  S
C915        F925   1.382   1_554  S
C929        C930   1.401       .  A
C929        C934   1.404       .  A
C929        H939   1.084       .  S
C930        C935   1.480       .  S
C930        C931   1.416       .  A
C931        C932   1.406       .  A
C931        C936   1.518       .  S
C932        C933   1.402       .  A
C932        H937   1.083       .  S
C933        C934   1.418       .  A
C934        C938   1.518       .  S
C935        C940   1.414       .  A
C935        C944   1.399       .  A
C936        F952   1.382       .  S
C936        F953   1.382       .  S
C936        F954   1.385       .  S
C938        F949   1.385       .  S
C938        F950   1.382       .  S
C938        F951   1.383       .  S
C940        C941   1.409       .  A
C940        C945   1.517       .  S
C941        C942   1.406       .  A
C941        H946   1.083       .  S
C942        C943   1.421       .  A
C943        C944   1.400       .  A
C943        C947   1.521       .  S
C944        H948   1.084       .  S
C945        F958   1.385       .  S
C945        F959   1.382       .  S
C945        F960   1.382       .  S
C947        F955   1.383       .  S
C947        F956   1.383       .  S
C947        F957   1.385       .  S
C961        C962   1.403       .  A
C961        C966   1.407       .  A
C961        H971   1.083       .  S
C962        C967   1.483       .  S
C962        C963   1.417       .  A
C963        C964   1.404       .  A
C963        C968   1.520       .  S
C964        C965   1.402       .  A
C964        H969   1.084       .  S
C965        C966   1.417       .  A
C966        C970   1.519       .  S
C967        C972   1.413       .  A
C967        C976   1.396       .  A
C968        F984   1.382       .  S
C968        F985   1.382       .  S
C968        F986   1.385       .  S
C970        F981   1.383       .  S
C970        F982   1.385       .  S
C970        F983   1.384       .  S
C972        C973   1.411       .  A
C972        C977   1.519       .  S
C973        C974   1.411       .  A
C973        H978   1.083       .  S
C974        C975   1.428       .  A
C975        C976   1.403       .  A
C975        C979   1.521       .  S
C976        H980   1.083       .  S
C977        F990   1.384       .  S
C977        F991   1.382       .  S
C977        F992   1.383       .  S
C979        F987   1.383       .  S
C979        F988   1.383       .  S
C979        F989   1.385       .  S
C993        C994   1.403       .  A
C993        C998   1.411       .  A
C993       H1003   1.083       .  S
C994        C999   1.481       .  S
C994        C995   1.411       .  A
C995        C996   1.401       .  A
C995       C1000   1.521       .  S
C996        C997   1.408       .  A
C996       H1001   1.083       .  S
C997        C998   1.421       .  A
C998       C1002   1.519       .  S
C999       C1004   1.415       .  A
C999       C1008   1.398       .  A
C1000      F1016   1.382       .  S
C1000      F1017   1.382       .  S
C1000      F1018   1.385       .  S
C1002      F1013   1.384       .  S
C1002      F1014   1.382       .  S
C1002      F1015   1.383       .  S
C1004      C1005   1.409       .  A
C1004      C1009   1.519       .  S
C1005      C1006   1.404       .  A
C1005      H1010   1.083       .  S
C1006      C1007   1.420       .  A
C1007      C1008   1.403       .  A
C1007      C1011   1.519       .  S
C1008      H1012   1.084       .  S
C1009      F1022   1.385       .  S
C1009      F1023   1.383       .  S
C1009      F1024   1.382       .  S
C1011      F1019   1.382       .  S
C1011      F1020   1.380       .  S
C1011      F1021   1.385       .  S
C1025      C1026   1.403       .  A
C1025      C1030   1.411       .  A
C1025      H1035   1.083       .  S
C1026      C1031   1.483   1_655  S
C1026      C1027   1.417       .  A
C1027      C1028   1.402       .  A
C1027      C1032   1.522       .  S
C1028      C1029   1.402       .  A
C1028      H1033   1.083       .  S
C1029      C1030   1.420       .  A
C1030      C1034   1.518       .  S
C1031      C1036   1.413   1_455  A
C1031      C1040   1.401       .  A
C1032      F1048   1.382   1_655  S
C1032      F1049   1.382       .  S
C1032      F1050   1.384       .  S
C1034      F1045   1.382       .  S
C1034      F1046   1.385       .  S
C1034      F1047   1.384       .  S
C1036      C1037   1.405   1_655  A
C1036      C1041   1.519       .  S
C1037      C1038   1.408       .  A
C1037      H1042   1.083       .  S
C1038      C1039   1.421       .  A
C1039      C1040   1.408       .  A
C1039      C1043   1.518       .  S
C1040      H1044   1.083       .  S
C1041      F1054   1.385       .  S
C1041      F1055   1.383       .  S
C1041      F1056   1.382       .  S
C1043      F1051   1.385       .  S
C1043      F1052   1.383       .  S
C1043      F1053   1.383       .  S
C1057      C1058   1.403       .  A
C1057      C1062   1.412       .  A
C1057      H1067   1.083       .  S
C1058      C1063   1.488       .  S
C1058      C1059   1.416       .  A
C1059      C1060   1.405       .  A
C1059      C1064   1.520       .  S
C1060      C1061   1.404       .  A
C1060      H1065   1.083       .  S
C1061      C1062   1.419       .  A
C1062      C1066   1.518       .  S
C1063      C1068   1.416   1_545  A
C1063      C1072   1.403       .  A
C1064      F1080   1.382       .  S
C1064      F1081   1.383       .  S
C1064      F1082   1.384       .  S
C1066      F1077   1.383       .  S
C1066      F1078   1.384       .  S
C1066      F1079   1.383       .  S
C1068      C1069   1.404       .  A
C1068      C1073   1.521       .  S
C1069      C1070   1.406       .  A
C1069      H1074   1.083       .  S
C1070      C1071   1.421       .  A
C1071      C1072   1.413   1_565  A
C1071      C1075   1.517       .  S
C1072      H1076   1.083       .  S
C1073      F1086   1.385       .  S
C1073      F1087   1.383       .  S
C1073      F1088   1.383   1_565  S
C1075      F1083   1.384       .  S
C1075      F1084   1.383       .  S
C1075      F1085   1.384       .  S
C1089      C1090   1.401       .  A
C1089      C1094   1.403       .  A
C1089      H1099   1.083       .  S
C1090      C1095   1.482       .  S
C1090      C1091   1.417       .  A
C1091      C1092   1.409       .  A
C1091      C1096   1.518       .  S
C1092      C1093   1.401       .  A
C1092      H1097   1.083       .  S
C1093      C1094   1.414       .  A
C1094      C1098   1.517       .  S
C1095      C1100   1.415       .  A
C1095      C1104   1.403       .  A
C1096      F1112   1.382       .  S
C1096      F1113   1.381       .  S
C1096      F1114   1.385       .  S
C1098      F1109   1.384       .  S
C1098      F1110   1.382       .  S
C1098      F1111   1.382       .  S
C1100      C1101   1.406       .  A
C1100      C1105   1.521       .  S
C1101      C1102   1.404   1_455  A
C1101      H1106   1.083       .  S
C1102      C1103   1.419       .  A
C1103      C1104   1.408   1_655  A
C1103      C1107   1.520       .  S
C1104      H1108   1.083       .  S
C1105      F1118   1.384       .  S
C1105      F1119   1.382       .  S
C1105      F1120   1.381       .  S
C1107      F1115   1.385       .  S
C1107      F1116   1.384       .  S
C1107      F1117   1.382       .  S
C1121      C1122   1.405       .  A
C1121      C1126   1.411       .  A
C1121      H1131   1.083   1_455  S
C1122      C1127   1.486   1_455  S
C1122      C1123   1.417       .  A
C1123      C1124   1.404       .  A
C1123      C1128   1.522       .  S
C1124      C1125   1.402       .  A
C1124      H1129   1.084       .  S
C1125      C1126   1.416       .  A
C1126      C1130   1.517       .  S
C1127      C1132   1.415       .  A
C1127      C1136   1.401       .  A
C1128      F1144   1.382       .  S
C1128      F1145   1.383   1_455  S
C1128      F1146   1.384       .  S
C1130      F1141   1.384       .  S
C1130      F1142   1.382       .  S
C1130      F1143   1.384       .  S
C1132      C1133   1.408       .  A
C1132      C1137   1.519       .  S
C1133      C1134   1.405       .  A
C1133      H1138   1.081       .  S
C1134      C1135   1.419       .  A
C1135      C1136   1.407       .  A
C1135      C1139   1.516       .  S
C1136      H1140   1.083   1_655  S
C1137      F1150   1.384       .  S
C1137      F1151   1.382       .  S
C1137      F1152   1.383       .  S
C1139      F1147   1.384   1_655  S
C1139      F1148   1.383       .  S
C1139      F1149   1.383       .  S
C1153      C1154   1.398       .  A
C1153      C1158   1.403       .  A
C1153      H1163   1.083       .  S
C1154      C1159   1.473       .  S
C1154      C1155   1.413       .  A
C1155      C1156   1.403       .  A
C1155      C1160   1.520       .  S
C1156      C1157   1.405       .  A
C1156      H1161   1.083       .  S
C1157      C1158   1.424       .  A
C1158      C1162   1.522       .  S
C1159      C1164   1.411       .  A
C1159      C1168   1.398       .  A
C1160      F1176   1.382       .  S
C1160      F1177   1.382       .  S
C1160      F1178   1.385       .  S
C1162      F1173   1.383       .  S
C1162      F1174   1.385       .  S
C1162      F1175   1.382       .  S
C1164      C1165   1.404       .  A
C1164      C1169   1.521       .  S
C1165      C1166   1.409   1_655  A
C1165      H1170   1.083   1_655  S
C1166      C1167   1.426   1_455  A
C1167      C1168   1.404       .  A
C1167      C1171   1.523       .  S
C1168      H1172   1.083       .  S
C1169      F1182   1.384       .  S
C1169      F1183   1.382       .  S
C1169      F1184   1.382       .  S
C1171      F1179   1.384   1_655  S
C1171      F1180   1.383       .  S
C1171      F1181   1.385       .  S
C1185      C1186   1.403       .  A
C1185      C1190   1.409       .  A
C1185      H1195   1.083       .  S
C1186      C1191   1.491       .  S
C1186      C1187   1.416       .  A
C1187      C1188   1.411       .  A
C1187      C1192   1.518       .  S
C1188      C1189   1.404       .  A
C1188      H1193   1.083       .  S
C1189      C1190   1.418       .  A
C1190      C1194   1.520       .  S
C1191      C1196   1.414       .  A
C1191      C1200   1.403       .  A
C1192      F1208   1.382       .  S
C1192      F1209   1.382       .  S
C1192      F1210   1.384       .  S
C1194      F1205   1.381       .  S
C1194      F1206   1.384       .  S
C1194      F1207   1.383       .  S
C1196      C1197   1.405       .  A
C1196      C1201   1.524       .  S
C1197      C1198   1.413       .  A
C1197      H1202   1.082       .  S
C1198      C1199   1.428       .  A
C1199      C1200   1.417       .  A
C1199      C1203   1.519   1_565  S
C1200      H1204   1.083       .  S
C1201      F1214   1.385       .  S
C1201      F1215   1.382       .  S
C1201      F1216   1.382       .  S
C1203      F1211   1.385   1_545  S
C1203      F1212   1.383       .  S
C1203      F1213   1.383       .  S
C1217      C1218   1.399   1_456  A
C1217      C1222   1.405       .  A
C1217      H1227   1.083   1_455  S
C1218      C1223   1.486       .  S
C1218      C1219   1.418   1_665  A
C1219      C1220   1.412   1_554  A
C1219      C1224   1.520       .  S
C1220      C1221   1.405       .  A
C1220      H1225   1.083       .  S
C1221      C1222   1.419   1_545  A
C1222      C1226   1.519       .  S
C1223      C1228   1.418       .  A
C1223      C1232   1.399   1_655  A
C1224      F1240   1.382       .  S
C1224      F1241   1.382   1_455  S
C1224      F1242   1.384       .  S
C1226      F1237   1.383   1_455  S
C1226      F1238   1.384       .  S
C1226      F1239   1.384       .  S
C1228      C1229   1.411       .  A
C1228      C1233   1.518       .  S
C1229      C1230   1.403       .  A
C1229      H1234   1.083       .  S
C1230      C1231   1.421       .  A
C1231      C1232   1.404   1_655  A
C1231      C1235   1.522   1_655  S
C1232      H1236   1.083       .  S
C1233      F1246   1.384       .  S
C1233      F1247   1.383   1_554  S
C1233      F1248   1.382   1_565  S
C1235      F1243   1.384       .  S
C1235      F1244   1.384   1_455  S
C1235      F1245   1.382       .  S
C1249      C1250   1.400       .  A
C1249      C1254   1.411       .  A
C1249      H1259   1.083       .  S
C1250      C1255   1.489       .  S
C1250      C1251   1.413       .  A
C1251      C1252   1.406       .  A
C1251      C1256   1.520       .  S
C1252      C1253   1.410       .  A
C1252      H1257   1.082       .  S
C1253      C1254   1.429       .  A
C1254      C1258   1.521       .  S
C1255      C1260   1.415       .  A
C1255      C1264   1.400       .  A
C1256      F1272   1.382       .  S
C1256      F1273   1.382       .  S
C1256      F1274   1.385       .  S
C1258      F1269   1.385       .  S
C1258      F1270   1.383       .  S
C1258      F1271   1.383       .  S
C1260      C1261   1.407       .  A
C1260      C1265   1.521       .  S
C1261      C1262   1.410       .  A
C1261      H1266   1.082       .  S
C1262      C1263   1.426       .  A
C1263      C1264   1.411       .  A
C1263      C1267   1.520       .  S
C1264      H1268   1.083       .  S
C1265      F1278   1.385       .  S
C1265      F1279   1.382       .  S
C1265      F1280   1.383       .  S
C1267      F1275   1.383       .  S
C1267      F1276   1.384       .  S
C1267      F1277   1.384       .  S
C1281      C1282   1.400   1_554  A
C1281      C1286   1.403   1_554  A
C1281      H1291   1.085       .  S
C1282      C1287   1.486   1_556  S
C1282      C1283   1.416       .  A
C1283      C1284   1.412       .  A
C1283      C1288   1.517       .  S
C1284      C1285   1.405       .  A
C1284      H1289   1.083       .  S
C1285      C1286   1.417       .  A
C1286      C1290   1.517   1_556  S
C1287      C1292   1.414   1_554  A
C1287      C1296   1.402       .  A
C1288      F1304   1.383       .  S
C1288      F1305   1.382       .  S
C1288      F1306   1.384       .  S
C1290      F1301   1.383   1_554  S
C1290      F1302   1.384       .  S
C1290      F1303   1.384   1_554  S
C1292      C1293   1.403   1_556  A
C1292      C1297   1.524       .  S
C1293      C1294   1.411       .  A
C1293      H1298   1.082   1_554  S
C1294      C1295   1.426       .  A
C1295      C1296   1.415       .  A
C1295      C1299   1.518       .  S
C1296      H1300   1.083       .  S
C1297      F1310   1.385       .  S
C1297      F1311   1.382       .  S
C1297      F1312   1.382       .  S
C1299      F1307   1.385       .  S
C1299      F1308   1.383       .  S
C1299      F1309   1.383       .  S
C1313      C1314   1.402       .  A
C1313      C1318   1.411       .  A
C1313      H1323   1.083       .  S
C1314      C1319   1.484   1_655  S
C1314      C1315   1.413       .  A
C1315      C1316   1.402       .  A
C1315      C1320   1.522       .  S
C1316      C1317   1.408       .  A
C1316      H1321   1.083       .  S
C1317      C1318   1.423       .  A
C1318      C1322   1.519       .  S
C1319      C1324   1.411       .  A
C1319      C1328   1.399       .  A
C1320      F1336   1.382   1_655  S
C1320      F1337   1.381       .  S
C1320      F1338   1.385       .  S
C1322      F1333   1.385       .  S
C1322      F1334   1.382       .  S
C1322      F1335   1.383       .  S
C1324      C1325   1.406       .  A
C1324      C1329   1.520   1_455  S
C1325      C1326   1.413       .  A
C1325      H1330   1.082       .  S
C1326      C1327   1.429       .  A
C1327      C1328   1.408       .  A
C1327      C1331   1.520       .  S
C1328      H1332   1.083       .  S
C1329      F1342   1.385       .  S
C1329      F1343   1.382       .  S
C1329      F1344   1.382       .  S
C1331      F1339   1.385       .  S
C1331      F1340   1.382       .  S
C1331      F1341   1.381       .  S
C1345      C1346   1.403       .  A
C1345      C1350   1.413       .  A
C1345      H1355   1.083       .  S
C1346      C1351   1.483       .  S
C1346      C1347   1.416       .  A
C1347      C1348   1.403       .  A
C1347      C1352   1.524       .  S
C1348      C1349   1.407       .  A
C1348      H1353   1.083       .  S
C1349      C1350   1.423       .  A
C1350      C1354   1.519       .  S
C1351      C1356   1.414       .  A
C1351      C1360   1.400       .  A
C1352      F1368   1.382       .  S
C1352      F1369   1.380       .  S
C1352      F1370   1.385       .  S
C1354      F1365   1.382       .  S
C1354      F1366   1.385       .  S
C1354      F1367   1.383       .  S
C1356      C1357   1.411       .  A
C1356      C1361   1.518       .  S
C1357      C1358   1.407       .  A
C1357      H1362   1.083       .  S
C1358      C1359   1.418       .  A
C1359      C1360   1.402       .  A
C1359      C1363   1.517       .  S
C1360      H1364   1.084       .  S
C1361      F1374   1.384       .  S
C1361      F1375   1.383       .  S
C1361      F1376   1.381       .  S
C1363      F1371   1.385       .  S
C1363      F1372   1.384       .  S
C1363      F1373   1.382       .  S
C1377      C1378   1.401       .  A
C1377      C1382   1.408       .  A
C1377      H1387   1.083       .  S
C1378      C1383   1.478       .  S
C1378      C1379   1.414       .  A
C1379      C1380   1.402       .  A
C1379      C1384   1.520       .  S
C1380      C1381   1.405       .  A
C1380      H1385   1.083       .  S
C1381      C1382   1.422       .  A
C1382      C1386   1.519       .  S
C1383      C1388   1.415       .  A
C1383      C1392   1.399       .  A
C1384      F1400   1.382       .  S
C1384      F1401   1.382       .  S
C1384      F1402   1.385       .  S
C1386      F1397   1.385       .  S
C1386      F1398   1.383       .  S
C1386      F1399   1.384       .  S
C1388      C1389   1.408       .  A
C1388      C1393   1.519       .  S
C1389      C1390   1.404       .  A
C1389      H1394   1.083       .  S
C1390      C1391   1.417       .  A
C1391      C1392   1.403       .  A
C1391      C1395   1.518       .  S
C1392      H1396   1.083       .  S
C1393      F1406   1.384       .  S
C1393      F1407   1.383       .  S
C1393      F1408   1.382       .  S
C1395      F1403   1.384       .  S
C1395      F1404   1.384       .  S
C1395      F1405   1.380       .  S
C1409      C1410   1.401       .  A
C1409      C1414   1.404       .  A
C1409      H1419   1.083       .  S
C1410      C1415   1.479       .  S
C1410      C1411   1.416       .  A
C1411      C1412   1.405   1_655  A
C1411      C1416   1.520   1_655  S
C1412      C1413   1.402       .  A
C1412      H1417   1.083       .  S
C1413      C1414   1.419   1_455  A
C1414      C1418   1.521       .  S
C1415      C1420   1.417       .  A
C1415      C1424   1.404       .  A
C1416      F1432   1.381   1_455  S
C1416      F1433   1.382       .  S
C1416      F1434   1.385       .  S
C1418      F1429   1.381   1_655  S
C1418      F1430   1.385       .  S
C1418      F1431   1.383       .  S
C1420      C1421   1.404       .  A
C1420      C1425   1.520       .  S
C1421      C1422   1.401       .  A
C1421      H1426   1.084       .  S
C1422      C1423   1.409       .  A
C1423      C1424   1.404       .  A
C1423      C1427   1.516       .  S
C1424      H1428   1.083       .  S
C1425      F1438   1.385       .  S
C1425      F1439   1.382       .  S
C1425      F1440   1.382   1_655  S
C1427      F1435   1.384       .  S
C1427      F1436   1.383       .  S
C1427      F1437   1.383       .  S
C1441      C1442   1.401       .  A
C1441      C1446   1.402       .  A
C1441      H1451   1.084       .  S
C1442      C1447   1.481       .  S
C1442      C1443   1.415       .  A
C1443      C1444   1.409       .  A
C1443      C1448   1.516       .  S
C1444      C1445   1.403       .  A
C1444      H1449   1.083       .  S
C1445      C1446   1.419       .  A
C1446      C1450   1.522       .  S
C1447      C1452   1.419       .  A
C1447      C1456   1.403       .  A
C1448      F1464   1.382       .  S
C1448      F1465   1.383       .  S
C1448      F1466   1.385       .  S
C1450      F1461   1.385       .  S
C1450      F1462   1.382       .  S
C1450      F1463   1.384       .  S
C1452      C1453   1.405       .  A
C1452      C1457   1.517       .  S
C1453      C1454   1.400       .  A
C1453      H1458   1.085       .  S
C1454      C1455   1.415       .  A
C1455      C1456   1.404       .  A
C1455      C1459   1.519       .  S
C1456      H1460   1.083       .  S
C1457      F1470   1.383       .  S
C1457      F1471   1.383       .  S
C1457      F1472   1.382       .  S
C1459      F1467   1.381       .  S
C1459      F1468   1.384       .  S
C1459      F1469   1.384       .  S
C1473      C1474   1.398       .  A
C1473      C1478   1.409       .  A
C1473      H1483   1.083       .  S
C1474      C1479   1.482       .  S
C1474      C1475   1.412       .  A
C1475      C1476   1.404       .  A
C1475      C1480   1.521       .  S
C1476      C1477   1.411       .  A
C1476      H1481   1.082       .  S
C1477      C1478   1.429       .  A
C1478      C1482   1.522       .  S
C1479      C1484   1.411       .  A
C1479      C1488   1.398       .  A
C1480      F1496   1.382       .  S
C1480      F1497   1.383       .  S
C1480      F1498   1.385       .  S
C1482      F1493   1.384       .  S
C1482      F1494   1.385       .  S
C1482      F1495   1.384       .  S
C1484      C1485   1.403       .  A
C1484      C1489   1.521       .  S
C1485      C1486   1.412       .  A
C1485      H1490   1.082       .  S
C1486      C1487   1.431       .  A
C1487      C1488   1.410       .  A
C1487      C1491   1.522       .  S
C1488      H1492   1.083       .  S
C1489      F1502   1.385   1_556  S
C1489      F1503   1.382       .  S
C1489      F1504   1.382   1_556  S
C1491      F1499   1.385       .  S
C1491      F1500   1.383       .  S
C1491      F1501   1.383       .  S
C1505      C1506   1.403       .  A
C1505      C1510   1.408       .  A
C1505      H1515   1.083       .  S
C1506      C1511   1.485       .  S
C1506      C1507   1.416       .  A
C1507      C1508   1.406       .  A
C1507      C1512   1.521       .  S
C1508      C1509   1.403       .  A
C1508      H1513   1.077       .  S
C1509      C1510   1.418       .  A
C1510      C1514   1.519       .  S
C1511      C1516   1.411       .  A
C1511      C1520   1.398       .  A
C1512      F1528   1.382       .  S
C1512      F1529   1.382       .  S
C1512      F1530   1.385       .  S
C1514      F1525   1.385       .  S
C1514      F1526   1.382       .  S
C1514      F1527   1.384       .  S
C1516      C1517   1.409       .  A
C1516      C1521   1.521       .  S
C1517      C1518   1.415       .  A
C1517      H1522   1.082       .  S
C1518      C1519   1.430       .  A
C1519      C1520   1.408       .  A
C1519      C1523   1.521       .  S
C1520      H1524   1.083       .  S
C1521      F1534   1.384       .  S
C1521      F1535   1.382       .  S
C1521      F1536   1.382       .  S
C1523      F1531   1.385       .  S
C1523      F1532   1.383       .  S
C1523      F1533   1.383       .  S
C1537      C1538   1.404       .  A
C1537      C1542   1.413       .  A
C1537      H1547   1.083       .  S
C1538      C1543   1.483       .  S
C1538      C1539   1.416       .  A
C1539      C1540   1.401       .  A
C1539      C1544   1.524       .  S
C1540      C1541   1.406       .  A
C1540      H1545   1.083       .  S
C1541      C1542   1.419       .  A
C1542      C1546   1.517       .  S
C1543      C1548   1.415       .  A
C1543      C1552   1.400   1_554  A
C1544      F1560   1.382       .  S
C1544      F1561   1.382       .  S
C1544      F1562   1.385       .  S
C1546      F1557   1.382       .  S
C1546      F1558   1.384       .  S
C1546      F1559   1.384       .  S
C1548      C1549   1.410   1_554  A
C1548      C1553   1.517       .  S
C1549      C1550   1.403       .  A
C1549      H1554   1.083   1_556  S
C1550      C1551   1.417       .  A
C1551      C1552   1.404       .  A
C1551      C1555   1.519       .  S
C1552      H1556   1.084       .  S
C1553      F1566   1.384       .  S
C1553      F1567   1.383       .  S
C1553      F1568   1.382       .  S
C1555      F1563   1.385       .  S
C1555      F1564   1.382       .  S
C1555      F1565   1.382       .  S
C1569      C1570   1.401       .  A
C1569      C1574   1.409       .  A
C1569      H1579   1.083       .  S
C1570      C1575   1.477       .  S
C1570      C1571   1.409       .  A
C1571      C1572   1.399       .  A
C1571      C1576   1.522       .  S
C1572      C1573   1.412       .  A
C1572      H1577   1.082       .  S
C1573      C1574   1.425       .  A
C1574      C1578   1.521       .  S
C1575      C1580   1.413       .  A
C1575      C1584   1.401       .  A
C1576      F1592   1.382       .  S
C1576      F1593   1.382       .  S
C1576      F1594   1.385       .  S
C1578      F1589   1.385       .  S
C1578      F1590   1.382       .  S
C1578      F1591   1.383       .  S
C1580      C1581   1.401       .  A
C1580      C1585   1.519       .  S
C1581      C1582   1.404       .  A
C1581      H1586   1.083       .  S
C1582      C1583   1.420       .  A
C1583      C1584   1.406       .  A
C1583      C1587   1.520       .  S
C1584      H1588   1.083       .  S
C1585      F1598   1.385       .  S
C1585      F1599   1.382       .  S
C1585      F1600   1.382       .  S
C1587      F1595   1.383       .  S
C1587      F1596   1.383       .  S
C1587      F1597   1.385       .  S
C1601      C1602   1.400       .  A
C1601      C1606   1.403       .  A
C1601      H1611   1.084       .  S
C1602      C1607   1.484       .  S
C1602      C1603   1.415       .  A
C1603      C1604   1.410       .  A
C1603      C1608   1.518       .  S
C1604      C1605   1.405       .  A
C1604      H1609   1.083       .  S
C1605      C1606   1.420       .  A
C1606      C1610   1.521       .  S
C1607      C1612   1.414       .  A
C1607      C1616   1.400       .  A
C1608      F1624   1.382       .  S
C1608      F1625   1.382       .  S
C1608      F1626   1.384       .  S
C1610      F1621   1.382       .  S
C1610      F1622   1.385       .  S
C1610      F1623   1.381       .  S
C1612      C1613   1.406       .  A
C1612      C1617   1.520       .  S
C1613      C1614   1.407       .  A
C1613      H1618   1.083       .  S
C1614      C1615   1.425       .  A
C1615      C1616   1.409       .  A
C1615      C1619   1.518       .  S
C1616      H1620   1.083       .  S
C1617      F1630   1.384       .  S
C1617      F1631   1.382       .  S
C1617      F1632   1.382       .  S
C1619      F1627   1.378       .  S
C1619      F1628   1.382       .  S
C1619      F1629   1.385       .  S
C1633      C1634   1.403       .  A
C1633      C1638   1.416   1_545  A
C1633      H1643   1.083       .  S
C1634      C1639   1.487       .  S
C1634      C1635   1.414       .  A
C1635      C1636   1.402   1_545  A
C1635      C1640   1.523       .  S
C1636      C1637   1.410       .  A
C1636      H1641   1.082       .  S
C1637      C1638   1.425       .  A
C1638      C1642   1.518       .  S
C1639      C1644   1.416       .  A
C1639      C1648   1.399       .  A
C1640      F1656   1.382       .  S
C1640      F1657   1.382       .  S
C1640      F1658   1.385   1_545  S
C1642      F1653   1.383       .  S
C1642      F1654   1.385       .  S
C1642      F1655   1.383       .  S
C1644      C1645   1.412       .  A
C1644      C1649   1.517       .  S
C1645      C1646   1.405       .  A
C1645      H1650   1.083       .  S
C1646      C1647   1.421       .  A
C1647      C1648   1.403       .  A
C1647      C1651   1.518       .  S
C1648      H1652   1.085       .  S
C1649      F1662   1.384       .  S
C1649      F1663   1.383       .  S
C1649      F1664   1.383   1_545  S
C1651      F1659   1.384       .  S
C1651      F1660   1.383       .  S
C1651      F1661   1.383       .  S
C1665      C1666   1.400       .  A
C1665      C1670   1.403       .  A
C1665      H1675   1.083       .  S
C1666      C1671   1.475       .  S
C1666      C1667   1.413       .  A
C1667      C1668   1.405       .  A
C1667      C1672   1.520       .  S
C1668      C1669   1.405       .  A
C1668      H1673   1.083       .  S
C1669      C1670   1.415       .  A
C1670      C1674   1.518       .  S
C1671      C1676   1.413       .  A
C1671      C1680   1.398       .  A
C1672      F1688   1.383       .  S
C1672      F1689   1.382       .  S
C1672      F1690   1.384       .  S
C1674      F1685   1.384       .  S
C1674      F1686   1.384       .  S
C1674      F1687   1.382       .  S
C1676      C1677   1.402       .  A
C1676      C1681   1.522       .  S
C1677      C1678   1.407       .  A
C1677      H1682   1.083       .  S
C1678      C1679   1.424       .  A
C1679      C1680   1.406       .  A
C1679      C1683   1.521       .  S
C1680      H1684   1.083       .  S
C1681      F1694   1.385       .  S
C1681      F1695   1.382       .  S
C1681      F1696   1.382       .  S
C1683      F1691   1.383       .  S
C1683      F1692   1.384       .  S
C1683      F1693   1.384       .  S
C1697      C1698   1.401       .  A
C1697      C1702   1.406       .  A
C1697      H1707   1.083       .  S
C1698      C1703   1.483       .  S
C1698      C1699   1.416       .  A
C1699      C1700   1.407       .  A
C1699      C1704   1.519       .  S
C1700      C1701   1.402       .  A
C1700      H1705   1.083       .  S
C1701      C1702   1.416       .  A
C1702      C1706   1.519       .  S
C1703      C1708   1.414       .  A
C1703      C1712   1.399       .  A
C1704      F1720   1.383       .  S
C1704      F1721   1.382       .  S
C1704      F1722   1.385       .  S
C1706      F1717   1.384       .  S
C1706      F1718   1.383       .  S
C1706      F1719   1.384   1_554  S
C1708      C1709   1.406       .  A
C1708      C1713   1.520       .  S
C1709      C1710   1.408       .  A
C1709      H1714   1.083       .  S
C1710      C1711   1.425       .  A
C1711      C1712   1.407       .  A
C1711      C1715   1.520       .  S
C1712      H1716   1.083       .  S
C1713      F1726   1.385       .  S
C1713      F1727   1.382       .  S
C1713      F1728   1.382       .  S
C1715      F1723   1.383       .  S
C1715      F1724   1.383       .  S
C1715      F1725   1.385       .  S
C1729      C1730   1.400       .  A
C1729      C1734   1.400       .  A
C1729      H1739   1.084       .  S
C1730      C1735   1.484       .  S
C1730      C1731   1.418       .  A
C1731      C1732   1.412       .  A
C1731      C1736   1.518       .  S
C1732      C1733   1.406       .  A
C1732      H1737   1.083       .  S
C1733      C1734   1.419       .  A
C1734      C1738   1.519       .  S
C1735      C1740   1.419       .  A
C1735      C1744   1.401       .  A
C1736      F1752   1.382       .  S
C1736      F1753   1.382       .  S
C1736      F1754   1.385       .  S
C1738      F1749   1.385       .  S
C1738      F1750   1.383       .  S
C1738      F1751   1.382       .  S
C1740      C1741   1.412       .  A
C1740      C1745   1.519       .  S
C1741      C1742   1.402       .  A
C1741      H1746   1.083       .  S
C1742      C1743   1.416       .  A
C1743      C1744   1.401       .  A
C1743      C1747   1.520       .  S
C1744      H1748   1.084       .  S
C1745      F1758   1.385       .  S
C1745      F1759   1.381       .  S
C1745      F1760   1.382       .  S
C1747      F1755   1.382       .  S
C1747      F1756   1.383       .  S
C1747      F1757   1.385       .  S
C1761      C1762   1.400       .  A
C1761      C1766   1.410       .  A
C1761      H1771   1.083       .  S
C1762      C1767   1.482       .  S
C1762      C1763   1.411       .  A
C1763      C1764   1.405       .  A
C1763      C1768   1.521       .  S
C1764      C1765   1.410       .  A
C1764      H1769   1.082       .  S
C1765      C1766   1.424       .  A
C1766      C1770   1.518       .  S
C1767      C1772   1.413       .  A
C1767      C1776   1.402       .  A
C1768      F1784   1.382       .  S
C1768      F1785   1.383       .  S
C1768      F1786   1.383       .  S
C1770      F1781   1.384       .  S
C1770      F1782   1.383       .  S
C1770      F1783   1.381       .  S
C1772      C1773   1.400       .  A
C1772      C1777   1.522       .  S
C1773      C1774   1.408       .  A
C1773      H1778   1.082       .  S
C1774      C1775   1.426       .  A
C1775      C1776   1.411       .  A
C1775      C1779   1.520       .  S
C1776      H1780   1.083       .  S
C1777      F1790   1.385       .  S
C1777      F1791   1.382       .  S
C1777      F1792   1.382       .  S
C1779      F1787   1.385       .  S
C1779      F1788   1.383       .  S
C1779      F1789   1.383       .  S
C1793      C1794   1.399       .  A
C1793      C1798   1.406       .  A
C1793      H1803   1.083       .  S
C1794      C1799   1.483       .  S
C1794      C1795   1.415       .  A
C1795      C1796   1.409       .  A
C1795      C1800   1.521       .  S
C1796      C1797   1.408       .  A
C1796      H1801   1.083       .  S
C1797      C1798   1.423       .  A
C1798      C1802   1.520       .  S
C1799      C1804   1.412       .  A
C1799      C1808   1.400       .  A
C1800      F1816   1.382       .  S
C1800      F1817   1.382       .  S
C1800      F1818   1.384       .  S
C1802      F1813   1.385       .  S
C1802      F1814   1.383       .  S
C1802      F1815   1.384       .  S
C1804      C1805   1.404       .  A
C1804      C1809   1.522       .  S
C1805      C1806   1.413       .  A
C1805      H1810   1.082       .  S
C1806      C1807   1.426       .  A
C1807      C1808   1.409       .  A
C1807      C1811   1.520   1_556  S
C1808      H1812   1.083       .  S
C1809      F1822   1.385       .  S
C1809      F1823   1.382       .  S
C1809      F1824   1.381       .  S
C1811      F1819   1.383       .  S
C1811      F1820   1.383       .  S
C1811      F1821   1.385       .  S
C1825      C1826   1.404       .  A
C1825      C1830   1.414       .  A
C1825      H1835   1.082       .  S
C1826      C1831   1.494       .  S
C1826      C1827   1.418       .  A
C1827      C1828   1.406       .  A
C1827      C1832   1.522       .  S
C1828      C1829   1.407       .  A
C1828      H1833   1.083       .  S
C1829      C1830   1.421       .  A
C1830      C1834   1.518       .  S
C1831      C1836   1.420       .  A
C1831      C1840   1.406       .  A
C1832      F1848   1.382       .  S
C1832      F1849   1.383       .  S
C1832      F1850   1.385       .  S
C1834      F1845   1.384       .  S
C1834      F1846   1.385       .  S
C1834      F1847   1.382       .  S
C1836      C1837   1.403   1_565  A
C1836      C1841   1.520       .  S
C1837      C1838   1.400       .  A
C1837      H1842   1.083       .  S
C1838      C1839   1.419   1_545  A
C1839      C1840   1.413       .  A
C1839      C1843   1.519       .  S
C1840      H1844   1.082       .  S
C1841      F1854   1.385       .  S
C1841      F1855   1.381       .  S
C1841      F1856   1.383       .  S
C1843      F1851   1.382   1_565  S
C1843      F1852   1.384       .  S
C1843      F1853   1.385       .  S
C1857      C1858   1.397       .  A
C1857      C1862   1.402   1_565  A
C1857      H1867   1.084       .  S
C1858      C1863   1.477       .  S
C1858      C1859   1.415       .  A
C1859      C1860   1.406   1_565  A
C1859      C1864   1.519       .  S
C1860      C1861   1.406       .  A
C1860      H1865   1.083       .  S
C1861      C1862   1.423       .  A
C1862      C1866   1.522       .  S
C1863      C1868   1.416       .  A
C1863      C1872   1.398       .  A
C1864      F1880   1.382   1_565  S
C1864      F1881   1.381       .  S
C1864      F1882   1.385       .  S
C1866      F1877   1.382       .  S
C1866      F1878   1.385       .  S
C1866      F1879   1.384       .  S
C1868      C1869   1.408       .  A
C1868      C1873   1.519       .  S
C1869      C1870   1.403       .  A
C1869      H1874   1.083       .  S
C1870      C1871   1.419       .  A
C1871      C1872   1.402       .  A
C1871      C1875   1.519       .  S
C1872      H1876   1.083   1_565  S
C1873      F1886   1.385       .  S
C1873      F1887   1.382       .  S
C1873      F1888   1.382       .  S
C1875      F1883   1.385   1_565  S
C1875      F1884   1.382       .  S
C1875      F1885   1.382       .  S
C1889      C1890   1.401       .  A
C1889      C1894   1.407       .  A
C1889      H1899   1.083       .  S
C1890      C1895   1.484       .  S
C1890      C1891   1.415       .  A
C1891      C1892   1.406       .  A
C1891      C1896   1.519       .  S
C1892      C1893   1.406       .  A
C1892      H1897   1.083       .  S
C1893      C1894   1.422       .  A
C1894      C1898   1.520       .  S
C1895      C1900   1.415       .  A
C1895      C1904   1.403       .  A
C1896      F1912   1.382       .  S
C1896      F1913   1.382       .  S
C1896      F1914   1.385       .  S
C1898      F1909   1.383       .  S
C1898      F1910   1.385       .  S
C1898      F1911   1.383       .  S
C1900      C1901   1.405       .  A
C1900      C1905   1.521       .  S
C1901      C1902   1.406       .  A
C1901      H1906   1.083       .  S
C1902      C1903   1.423       .  A
C1903      C1904   1.409       .  A
C1903      C1907   1.521       .  S
C1904      H1908   1.083       .  S
C1905      F1918   1.384       .  S
C1905      F1919   1.381       .  S
C1905      F1920   1.382       .  S
C1907      F1915   1.383       .  S
C1907      F1916   1.383   1_556  S
C1907      F1917   1.385       .  S
C1921      C1922   1.402       .  A
C1921      C1926   1.405       .  A
C1921      H1931   1.083       .  S
C1922      C1927   1.483       .  S
C1922      C1923   1.415       .  A
C1923      C1924   1.409       .  A
C1923      C1928   1.517       .  S
C1924      C1925   1.403       .  A
C1924      H1929   1.083       .  S
C1925      C1926   1.415       .  A
C1926      C1930   1.520       .  S
C1927      C1932   1.416       .  A
C1927      C1936   1.405       .  A
C1928      F1944   1.383       .  S
C1928      F1945   1.382       .  S
C1928      F1946   1.384       .  S
C1930      F1941   1.382       .  S
C1930      F1942   1.384       .  S
C1930      F1943   1.384       .  S
C1932      C1933   1.399       .  A
C1932      C1937   1.524       .  S
C1933      C1934   1.403       .  A
C1933      H1938   1.083       .  S
C1934      C1935   1.420       .  A
C1935      C1936   1.415       .  A
C1935      C1939   1.517       .  S
C1936      H1940   1.083       .  S
C1937      F1950   1.385       .  S
C1937      F1951   1.382       .  S
C1937      F1952   1.381       .  S
C1939      F1947   1.385       .  S
C1939      F1948   1.383       .  S
C1939      F1949   1.382       .  S
