geometry optimzed in LAMMPS
_audit_creation_date              2020-12-01 
_audit_creation_method            'lammps2cif' 
_symmetry_space_group_name_H-M    'P1' 
_symmetry_Int_Tables_number       1 
_symmetry_cell_setting            triclinic 
loop_ 
_symmetry_equiv_pos_as_xyz 
  x,y,z 
_cell_length_a                    24.22760522 
_cell_length_b                    24.227468007121367 
_cell_length_c                    30.383460544293744 
_cell_angle_alpha                 90.00299848042538 
_cell_angle_beta                  90.00165561794763 
_cell_angle_gamma                 90.00271106179011 
loop_ 
_atom_site_label 
_atom_site_type_symbol 
_atom_site_fract_x 
_atom_site_fract_y 
_atom_site_fract_z 
_atom_site_charge 
O1          O  0.48272019  0.31289396  0.17631447    -0.80100
C2          C  0.60184668  0.11460129  0.16576325     0.99300
O3          O  0.55048402  0.11824440  0.15862883    -0.69200
O4          O  0.48645085  0.16417520  0.21473950    -0.72800
Al5        Al  0.50174678  0.18124675  0.15543143     1.49000
C6          C  0.48243486  0.19387156  0.24818921     0.94500
O7          O  0.60608078  0.26184474  0.24188441    -0.79000
O8          O  0.61695144  0.30130601  0.11692904    -0.72600
Al9        Al  0.54432624  0.28411626  0.20720252     1.90100
O10         O  0.66314951  0.25003539  0.18639298    -0.71600
O11         O  0.59348026  0.20343334  0.08345838    -0.71500
O12         O  0.63367501  0.15464812  0.15879035    -0.77100
O13         O  0.50594063  0.18776941  0.09363226    -0.75300
O14         O  0.55521916  0.23080544  0.16691738    -1.11500
O15         O  0.44448558  0.23645693  0.15116530    -0.70700
C16         C  0.44395713  0.28832231  0.15669254     1.00100
C17         C  0.65434368  0.25810122  0.22644967     0.96400
Al18       Al  0.62048823  0.22712541  0.13865292     1.55600
O19         O  0.49855679  0.24312168  0.24725398    -0.75300
C20         C  0.54642751  0.19328930  0.06854700     1.00600
C21         C  0.61363570  0.34218600  0.14263912     0.95500
O22         O  0.58833097  0.33846575  0.17867583    -0.80600
O23         O  0.89206192  0.19044203  0.33848464    -0.80100
C24         C  0.87536646  0.41973277  0.33850923     0.99300
O25         O  0.84954819  0.39110142  0.36664227    -0.69200
O26         O  0.80351820  0.32045718  0.31485156    -0.72800
Al27       Al  0.84406543  0.31142425  0.36629560     1.49000
C28         C  0.79978094  0.28424582  0.28566657     0.94500
O29         O  0.93567744  0.29629958  0.25215405    -0.79000
O30         O  0.00895021  0.28544236  0.36902336    -0.72600
Al31       Al  0.91388062  0.24663274  0.29839854     1.90100
O32         O  0.99666440  0.34172775  0.29094074    -0.71600
O33         O  0.94632920  0.35991543  0.40944571    -0.71500
O34         O  0.92364649  0.40655207  0.32709212    -0.77100
O35         O  0.87760286  0.30313955  0.42167372    -0.75300
O36         O  0.90738115  0.30037533  0.33783337    -1.11500
O37         O  0.82340961  0.23474284  0.36973643    -0.70700
C38         C  0.84663937  0.19017242  0.35872778     1.00100
C39         C  0.97638650  0.32864302  0.25419858     0.96400
Al40       Al  0.96433540  0.34503487  0.34853827     1.55600
O41         O  0.83932732  0.25205074  0.27686591    -0.75300
C42         C  0.91569338  0.33352623  0.43569861     1.00600
C43         C  0.01851328  0.24192660  0.34725727     0.95500
O44         O  0.98924085  0.22884728  0.31419346    -0.80600
O45         O  0.56869412  0.33881111  0.83856643    -0.80100
C46         C  0.58539894  0.10950249  0.83841717     0.99300
O47         O  0.61122134  0.13811541  0.86656310    -0.69200
O48         O  0.65721910  0.20881623  0.81481865    -0.72800
Al49       Al  0.61669548  0.21779394  0.86627357     1.49000
C50         C  0.66094739  0.24506018  0.78566265     0.94500
O51         O  0.52506438  0.23304681  0.75215457    -0.79000
O52         O  0.45181612  0.24375530  0.86903583    -0.72600
Al53       Al  0.54686356  0.28266204  0.79843721     1.90100
O54         O  0.46409310  0.18755876  0.79090478    -0.71600
O55         O  0.51444983  0.16924568  0.90939291    -0.71500
O56         O  0.53712235  0.12269942  0.82700092    -0.77100
O57         O  0.58317127  0.22601899  0.92165829    -0.75300
O58         O  0.55337522  0.22887155  0.83782629    -1.11500
O59         O  0.63735446  0.29447044  0.86976897    -0.70700
C60         C  0.61412909  0.33905523  0.85879540     1.00100
C61         C  0.48437256  0.20068095  0.75417381     0.96400
Al62       Al  0.49643040  0.18419165  0.84849797     1.55600
O63         O  0.62140444  0.27727030  0.77689278    -0.75300
C64         C  0.54508877  0.19561112  0.93566281     1.00600
C65         C  0.44225262  0.28730340  0.84731511     0.95500
O66         O  0.47151009  0.30042372  0.81425620    -0.80600
O67         O  0.97804047  0.21628148  0.67646470    -0.80100
C68         C  0.85892651  0.41455776  0.66576633     0.99300
O69         O  0.91029470  0.41090944  0.65865886    -0.69200
O70         O  0.97433181  0.36501799  0.71478654    -0.72800
Al71       Al  0.95903025  0.34790545  0.65548461     1.49000
C72         C  0.97831618  0.33536206  0.74825866     0.94500
O73         O  0.85464220  0.26741084  0.74193744    -0.79000
O74         O  0.84385718  0.22782138  0.61699668    -0.72600
Al75       Al  0.91641420  0.24509480  0.70730194     1.90100
O76         O  0.79760962  0.27914908  0.68641172    -0.71600
O77         O  0.86732114  0.32566432  0.58349130    -0.71500
O78         O  0.82709865  0.37451111  0.65878424    -0.77100
O79         O  0.95485114  0.34135027  0.59368333    -0.75300
O80         O  0.90555042  0.29836338  0.66697898    -1.11500
O81         O  0.01627450  0.29268084  0.65124653    -0.70700
C82         C  0.01680186  0.24082466  0.65682183     1.00100
C83         C  0.80639174  0.27114274  0.72647778     0.96400
Al84       Al  0.84029703  0.30201763  0.63868447     1.55600
O85         O  0.96215699  0.28612374  0.74735504    -0.75300
C86         C  0.91437441  0.33580821  0.56858852     1.00600
C87         C  0.84716780  0.18696194  0.64272423     0.95500
O88         O  0.87243157  0.19071866  0.67877868    -0.80600
O89         O  0.65622026  0.60313126  0.83853181    -0.80100
C90         C  0.88552455  0.61970096  0.83846958     0.99300
O91         O  0.85693143  0.64550850  0.86663771    -0.69200
O92         O  0.78623270  0.69165738  0.81497419    -0.72800
Al93       Al  0.77725012  0.65101490  0.86637179     1.49000
C94         C  0.75004140  0.69541045  0.78577637     0.94500
O95         O  0.76203110  0.55953536  0.75214945    -0.79000
O96         O  0.75119063  0.48617192  0.86898704    -0.72600
Al97       Al  0.71239211  0.58131247  0.79842637     1.90100
O98         O  0.80740639  0.49846635  0.79087619    -0.71600
O99         O  0.82578231  0.54868994  0.90938361    -0.71500
O100        O  0.87230565  0.57143950  0.82702065    -0.77100
O101        O  0.76902294  0.61738852  0.92172622    -0.75300
O102        O  0.76615528  0.58774681  0.83784948    -1.11500
O103        O  0.70057380  0.67168372  0.86988494    -0.70700
C104        C  0.65598422  0.64851370  0.85883611     1.00100
C105        C  0.79434574  0.51880428  0.75415349     0.96400
Al106      Al  0.81079485  0.53075801  0.84848372     1.55600
O107        O  0.71785072  0.65587152  0.77694014    -0.75300
C108        C  0.79943473  0.57928597  0.93568933     1.00600
C109        C  0.70764071  0.47666240  0.84724777     0.95500
O110        O  0.69456610  0.50595012  0.81419268    -0.80600
O111        O  0.77870802  0.01243081  0.67637034    -0.80100
C112        C  0.58045660  0.89322878  0.66578954     0.99300
O113        O  0.58408939  0.94458741  0.65863441    -0.69200
O114        O  0.62997887  0.00868152  0.71472903    -0.72800
Al115      Al  0.64708168  0.99334112  0.65543338     1.49000
C116        C  0.65965449  0.01272439  0.74818843     0.94500
O117        O  0.72765831  0.88909013  0.74195206    -0.79000
O118        O  0.76717878  0.87815282  0.61701544    -0.72600
Al119      Al  0.74993196  0.95082766  0.70725922     1.90100
O120        O  0.71588550  0.83198140  0.68647848    -0.71600
O121        O  0.66933475  0.90156128  0.58350383    -0.71500
O122        O  0.62051106  0.86140770  0.65883403    -0.77100
O123        O  0.65364127  0.98910280  0.59363163    -0.75300
O124        O  0.69664566  0.93989308  0.66695839    -1.11500
O125        O  0.70227630  0.05061253  0.65116853    -0.70700
C126        C  0.75413361  0.05117413  0.65673168     1.00100
C127        C  0.72393112  0.84081734  0.72653376     0.96400
Al128      Al  0.69299430  0.87460352  0.63871645     1.55600
O129        O  0.70890330  0.99660273  0.74728128    -0.75300
C130        C  0.65919737  0.94859823  0.56856519     1.00600
C131        C  0.80804693  0.88149654  0.64273275     0.95500
O132        O  0.80430966  0.90682342  0.67876084    -0.80600
O133        O  0.68217666  0.51667254  0.17632657    -0.80100
C134        C  0.88047710  0.63582768  0.16582265     0.99300
O135        O  0.87682522  0.58445971  0.15871366    -0.69200
O136        O  0.83084255  0.52039330  0.21477200    -0.72800
Al137      Al  0.81382391  0.53572558  0.15546022     1.49000
C138        C  0.80114569  0.51641821  0.24822255     0.94500
O139        O  0.73316832  0.64006601  0.24188506    -0.79000
O140        O  0.69379285  0.65094196  0.11692940    -0.72600
Al141      Al  0.71093007  0.57830293  0.20720416     1.90100
O142        O  0.74504519  0.69713036  0.18640329    -0.71600
O143        O  0.79165764  0.62747598  0.08348866    -0.71500
O144        O  0.84043918  0.66765613  0.15882467    -0.77100
O145        O  0.80736307  0.53994501  0.09365096    -0.75300
O146        O  0.76426239  0.58919752  0.16693490    -1.11500
O147        O  0.75861057  0.47847353  0.15114750    -0.70700
C148        C  0.70675034  0.47792223  0.15669376     1.00100
C149        C  0.73693901  0.68832512  0.22645256     0.96400
Al150      Al  0.76796209  0.65447132  0.13867407     1.55600
O151        O  0.75190920  0.53257019  0.24728206    -0.75300
C152        C  0.80182807  0.58043592  0.06857092     1.00600
C153        C  0.65289866  0.64761370  0.14261969     0.95500
O154        O  0.65659189  0.62228669  0.17864772    -0.80600
O155        O  0.80470679  0.92603570  0.33840992    -0.80100
C156        C  0.57541566  0.90935769  0.33849489     0.99300
O157        O  0.60404704  0.88356479  0.36664440    -0.69200
O158        O  0.67469226  0.83747957  0.31490577    -0.72800
Al159      Al  0.68372664  0.87809357  0.36631198     1.49000
C160        C  0.71084821  0.83374958  0.28568067     0.94500
O161        O  0.69878931  0.96962855  0.25210585    -0.79000
O162        O  0.70969843  0.04295584  0.36895169    -0.72600
Al163      Al  0.74848090  0.94785039  0.29834687     1.90100
O164        O  0.65340158  0.03064589  0.29087815    -0.71600
O165        O  0.63520604  0.98037749  0.40939236    -0.71500
O166        O  0.58859211  0.95762984  0.32705187    -0.77100
O167        O  0.69201029  0.91169770  0.42167207    -0.75300
O168        O  0.69476179  0.94137828  0.33780253    -1.11500
O169        O  0.76041081  0.85745265  0.36976342    -0.70700
C170        C  0.80498007  0.88064838  0.35870388     1.00100
C171        C  0.66645253  0.01033975  0.25414064     0.96400
Al172      Al  0.65010227  0.99833833  0.34848237     1.55600
O173        O  0.74302414  0.87329733  0.27683839    -0.75300
C174        C  0.66159724  0.94978020  0.43566993     1.00600
C175        C  0.75321960  0.05249620  0.34718858     0.95500
O176        O  0.76628915  0.02321431  0.31412708    -0.80600
O177        O  0.30439739  0.42617156  0.83863387    -0.80100
C178        C  0.07508482  0.40961314  0.83850946     0.99300
O179        O  0.10368107  0.38378013  0.86665612    -0.69200
O180        O  0.17433523  0.33770438  0.81490423    -0.72800
Al181      Al  0.18335505  0.37824726  0.86635356     1.49000
C182        C  0.21057249  0.33394514  0.78574372     0.94500
O183        O  0.19865253  0.46982447  0.75222774    -0.79000
O184        O  0.20945299  0.54313010  0.86908702    -0.72600
Al185      Al  0.24826364  0.44801748  0.79850419     1.90100
O186        O  0.15321971  0.53084550  0.79097151    -0.71600
O187        O  0.13491870  0.48055923  0.90947199    -0.71500
O188        O  0.08831257  0.45788254  0.82709507    -0.77100
O189        O  0.19162534  0.41178546  0.92172612    -0.75300
O190        O  0.19447678  0.44155570  0.83789946    -1.11500
O191        O  0.26001760  0.35753827  0.86984273    -0.70700
C192        C  0.30461543  0.38074439  0.85887104     1.00100
C193        C  0.16630980  0.51053197  0.75424422     0.96400
Al194      Al  0.14984778  0.49853978  0.84857145     1.55600
O195        O  0.24281295  0.37346658  0.77697268    -0.75300
C196        C  0.16128566  0.44991798  0.93573385     1.00600
C197        C  0.25299702  0.55266506  0.84735198     0.95500
O198        O  0.26608953  0.52337431  0.81430245    -0.80600
O199        O  0.18194241  0.01681459  0.67644479    -0.80100
C200        C  0.38012231  0.13609674  0.66578342     0.99300
O201        O  0.37650999  0.08472974  0.65865700    -0.69200
O202        O  0.33066438  0.02063063  0.71476447    -0.72800
Al203      Al  0.31354592  0.03594664  0.65546804     1.49000
C204        C  0.30101286  0.01662264  0.74823773     0.94500
O205        O  0.23295378  0.14024984  0.74195231    -0.79000
O206        O  0.19338207  0.15104603  0.61701399    -0.72600
Al207      Al  0.21069955  0.07846261  0.70729674     1.90100
O208        O  0.24466357  0.19731146  0.68644614    -0.71600
O209        O  0.29125609  0.12767023  0.58350911    -0.71500
O210        O  0.34005412  0.16789864  0.65881724    -0.77100
O211        O  0.30700324  0.04014711  0.59367089    -0.75300
O212        O  0.26396320  0.08938484  0.66697902    -1.11500
O213        O  0.25836880  0.97865833  0.65120847    -0.70700
C214        C  0.20651527  0.97808160  0.65678942     1.00100
C215        C  0.23664890  0.18851079  0.72650858     0.96400
Al216      Al  0.26757350  0.15465432  0.63870728     1.55600
O217        O  0.25176613  0.03275099  0.74733992    -0.75300
C218        C  0.30145718  0.08063501  0.56859236     1.00600
C219        C  0.15252606  0.14770261  0.64274382     0.95500
O220        O  0.15629193  0.12240682  0.67878179    -0.80600
O221        O  0.27895726  0.51236847  0.17639284    -0.80100
C222        C  0.08068362  0.39321166  0.16582882     0.99300
O223        O  0.08432634  0.44458267  0.15873771    -0.69200
O224        O  0.13029199  0.50863130  0.21481658    -0.72800
Al225      Al  0.14731622  0.49332409  0.15550598     1.49000
C226        C  0.15997782  0.51259384  0.24827413     0.94500
O227        O  0.22796091  0.38893099  0.24188474    -0.79000
O228        O  0.26736948  0.37815342  0.11692198    -0.72600
Al229      Al  0.25020321  0.45072137  0.20724066     1.90100
O230        O  0.21612681  0.33190290  0.18636742    -0.71600
O231        O  0.16947524  0.40162318  0.08349210    -0.71500
O232        O  0.12072155  0.36138758  0.15881222    -0.77100
O233        O  0.15376069  0.48914375  0.09370508    -0.75300
O234        O  0.19688158  0.43984905  0.16695787    -1.11500
O235        O  0.20252687  0.55057471  0.15121235    -0.70700
C236        C  0.25438695  0.55111821  0.15675880     1.00100
C237        C  0.22421125  0.34068122  0.22642448     0.96400
Al238      Al  0.19319488  0.37459423  0.13866235     1.55600
O239        O  0.20921263  0.49643224  0.24733907    -0.75300
C240        C  0.15926938  0.44866991  0.06860518     1.00600
C241        C  0.30825765  0.38146607  0.14262473     0.95500
O242        O  0.30454911  0.40676142  0.17866814    -0.80600
O243        O  0.15643152  0.10306648  0.33851306    -0.80100
C244        C  0.38573487  0.11966095  0.33849535     0.99300
O245        O  0.35712396  0.14550060  0.36662903    -0.69200
O246        O  0.28651051  0.19151576  0.31481806    -0.72800
Al247      Al  0.27745098  0.15102259  0.36628025     1.49000
C248        C  0.25029781  0.19524786  0.28563590     0.94500
O249        O  0.26225462  0.05935081  0.25218242    -0.79000
O250        O  0.25138880  0.98613940  0.36906313    -0.72600
Al251      Al  0.21260440  0.08119017  0.29842411     1.90100
O252        O  0.30767600  0.99837429  0.29097552    -0.71600
O253        O  0.32586637  0.04875442  0.40946859    -0.71500
O254        O  0.37253251  0.07137658  0.32710153    -0.77100
O255        O  0.26914008  0.11752935  0.42166495    -0.75300
O256        O  0.26635960  0.08769040  0.33784670    -1.11500
O257        O  0.20078258  0.17172536  0.36972013    -0.70700
C258        C  0.15619395  0.14850450  0.35873999     1.00100
C259        C  0.29460772  0.01865406  0.25423272     0.96400
Al260      Al  0.31099397  0.03072476  0.34856447     1.55600
O261        O  0.21806404  0.15572047  0.27686386    -0.75300
C262        C  0.29946886  0.07940719  0.43570479     1.00600
C263        C  0.20786473  0.97657845  0.34730892     0.95500
O264        O  0.19478099  0.00584594  0.31424610    -0.80600
O265        O  0.39185218  0.69057051  0.83858944    -0.80100
C266        C  0.37528911  0.91988372  0.83848639     0.99300
O267        O  0.34946417  0.89128850  0.86664040    -0.69200
O268        O  0.30336723  0.82060352  0.81492740    -0.72800
Al269      Al  0.34394543  0.81160928  0.86635742     1.49000
C270        C  0.29961002  0.78437978  0.78575442     0.94500
O271        O  0.43549782  0.79634036  0.75219171    -0.79000
O272        O  0.50881835  0.78554075  0.86904544    -0.72600
Al273      Al  0.41369331  0.74672063  0.79847095     1.90100
O274        O  0.49652684  0.84176850  0.79093272    -0.71600
O275        O  0.44626783  0.86008896  0.90944003    -0.71500
O276        O  0.42355831  0.90666500  0.82706615    -0.77100
O277        O  0.37751361  0.80336876  0.92172792    -0.75300
O278        O  0.40724034  0.80050142  0.83787806    -1.11500
O279        O  0.32325340  0.73493441  0.86985874    -0.70700
C280        C  0.34644469  0.69034011  0.85885555     1.00100
C281        C  0.47621462  0.82867735  0.75420478     0.96400
Al282      Al  0.46422590  0.84514159  0.84853676     1.55600
O283        O  0.33914039  0.75216618  0.77695468    -0.75300
C284        C  0.41564774  0.83372486  0.93571921     1.00600
C285        C  0.51834224  0.74199139  0.84731080     0.95500
O286        O  0.48905037  0.72889927  0.81426049    -0.80600
O287        O  0.98253154  0.81296612  0.67640970    -0.80100
C288        C  0.10174171  0.61474166  0.66583554     0.99300
O289        O  0.05038218  0.61836589  0.65868199    -0.69200
O290        O  0.98628423  0.66426568  0.71476722    -0.72800
Al291      Al  0.00162689  0.68134802  0.65546810     1.49000
C292        C  0.98227787  0.69394037  0.74823049     0.94500
O293        O  0.10591577  0.76197119  0.74196409    -0.79000
O294        O  0.11680250  0.80144085  0.61701717    -0.72600
Al295      Al  0.04415637  0.78421323  0.70728086     1.90100
O296        O  0.16300062  0.75019343  0.68648321    -0.71600
O297        O  0.09340817  0.70355676  0.58354214    -0.71500
O298        O  0.13356342  0.65479823  0.65888102    -0.77100
O299        O  0.00586443  0.68787403  0.59366489    -0.75300
O300        O  0.05507893  0.73091924  0.66698482    -1.11500
O301        O  0.94435551  0.73653708  0.65118838    -0.70700
C302        C  0.94378948  0.78839243  0.65676472     1.00100
C303        C  0.15418187  0.75824893  0.72653762     0.96400
Al304      Al  0.12036457  0.72726559  0.63874021     1.55600
O305        O  0.99841898  0.74318321  0.74732145    -0.75300
C306        C  0.04637606  0.69339274  0.56860323     1.00600
C307        C  0.11344666  0.84231952  0.64272520     0.95500
O308        O  0.08812786  0.83858811  0.67875533    -0.80600
O309        O  0.47845494  0.71614925  0.17630520    -0.80100
C310        C  0.35924275  0.91440043  0.16586867     0.99300
O311        O  0.41060281  0.91077665  0.15872235    -0.69200
O312        O  0.47468948  0.86482966  0.21478551    -0.72800
Al313      Al  0.45935677  0.84779522  0.15547521     1.49000
C314        C  0.47872266  0.83511715  0.24822280     0.94500
O315        O  0.35511559  0.76709238  0.24194192    -0.79000
O316        O  0.34415696  0.72771872  0.11697907    -0.72600
Al317      Al  0.41685438  0.74487651  0.20722255     1.90100
O318        O  0.29800188  0.77893772  0.18648505    -0.71600
O319        O  0.36756714  0.82561635  0.08354313    -0.71500
O320        O  0.32742445  0.87434366  0.15890282    -0.77100
O321        O  0.45511028  0.84132004  0.09366869    -0.75300
O322        O  0.40591084  0.79820909  0.16696535    -1.11500
O323        O  0.51663673  0.79261110  0.15116088    -0.70700
C324        C  0.51719660  0.74074600  0.15668179     1.00100
C325        C  0.30684074  0.77084299  0.22653254     0.96400
Al326      Al  0.34061658  0.80188342  0.13873542     1.55600
O327        O  0.46262009  0.78586344  0.24727299    -0.75300
C328        C  0.41459435  0.83580945  0.06860712     1.00600
C329        C  0.34751522  0.68682525  0.14266778     0.95500
O330        O  0.37286022  0.69052896  0.17868793    -0.80600
O331        O  0.06911900  0.83859886  0.33849474    -0.80100
C332        C  0.08571268  0.60930710  0.33853311     0.99300
O333        O  0.11151734  0.63792634  0.36668741    -0.69200
O334        O  0.15764442  0.70856255  0.31495810    -0.72800
Al335      Al  0.11703026  0.71760513  0.36636444     1.49000
C336        C  0.16141021  0.74474562  0.28575730     0.94500
O337        O  0.02552061  0.73272769  0.25215455    -0.79000
O338        O  0.95216939  0.74366875  0.36899177    -0.72600
Al339      Al  0.04730817  0.78240356  0.29840753     1.90100
O340        O  0.96446940  0.68736710  0.29091712    -0.71600
O341        O  0.01470362  0.66914494  0.40943686    -0.71500
O342        O  0.03744322  0.62250459  0.32709313    -0.77100
O343        O  0.08343136  0.72589866  0.42171912    -0.75300
O344        O  0.05374961  0.72867311  0.33785379    -1.11500
O345        O  0.13770265  0.79428527  0.36983119    -0.70700
C346        C  0.11450330  0.83886042  0.35879322     1.00100
C347        C  0.98478458  0.70041581  0.25418330     0.96400
Al348      Al  0.99676272  0.68404392  0.34852465     1.55600
O349        O  0.12187663  0.77693978  0.27691843    -0.75300
C350        C  0.04530735  0.69553571  0.43571368     1.00600
C351        C  0.94264744  0.78718904  0.34722135     0.95500
O352        O  0.97194283  0.80023717  0.31416387    -0.80600
C353        C  0.21403782  0.75345136  0.26660402    -0.11500
C354        C  0.25942692  0.76229153  0.25281930    -0.13100
C355        C  0.03842452  0.69009203  0.48231215    -0.11500
C356        C  0.03918332  0.68945774  0.52192651    -0.13100
C357        C  0.42253303  0.83917686  0.98231764    -0.11500
C358        C  0.42177783  0.83978767  0.02193234    -0.13100
C359        C  0.20160461  0.76679413  0.75281420    -0.11500
C360        C  0.24699181  0.77564781  0.76659596    -0.13100
C361        C  0.14425866  0.89004579  0.36351528    -0.11500
C362        C  0.17313146  0.93043088  0.35900947    -0.13100
C363        C  0.31642000  0.99299948  0.21486398    -0.11500
C364        C  0.33674790  0.96238248  0.18774468    -0.13100
C365        C  0.13705097  0.53820373  0.28722015    -0.11500
C366        C  0.11396964  0.56597959  0.31484763    -0.13100
C367        C  0.28658410  0.59756036  0.14162147    -0.11500
C368        C  0.31568430  0.63744417  0.13547248    -0.13100
C369        C  0.23275259  0.29323319  0.25266612    -0.11500
C370        C  0.24159101  0.24784561  0.26644539    -0.13100
C371        C  0.17433100  0.93161948  0.64166862    -0.11500
C372        C  0.14524797  0.89171912  0.63553176    -0.13100
C373        C  0.32398451  0.99099728  0.78715996    -0.11500
C374        C  0.34705952  0.96321417  0.81478518    -0.13100
C375        C  0.30485661  0.07258407  0.48231045    -0.11500
C376        C  0.30542917  0.07340419  0.52192338    -0.13100
C377        C  0.12422753  0.56676316  0.68771706    -0.11500
C378        C  0.14453414  0.53615980  0.71485381    -0.13100
C379        C  0.31665239  0.63917067  0.86357092    -0.11500
C380        C  0.28774977  0.59880352  0.85905970    -0.13100
C381        C  0.15585070  0.45676237  0.98233227    -0.11500
C382        C  0.15526657  0.45593274  0.02194362    -0.13100
C383        C  0.21928870  0.28133213  0.76656941    -0.11500
C384        C  0.22812585  0.23594566  0.75277837    -0.13100
C385        C  0.50433570  0.85803003  0.28716817    -0.11500
C386        C  0.53210078  0.88109019  0.31481111    -0.13100
C387        C  0.85616257  0.85087887  0.36340108    -0.11500
C388        C  0.89652124  0.82196689  0.35889951    -0.13100
C389        C  0.71955002  0.78114175  0.26650141    -0.11500
C390        C  0.72839186  0.73575606  0.25271594    -0.13100
C391        C  0.92847202  0.65832327  0.18769141    -0.11500
C392        C  0.95911627  0.67863328  0.21480459    -0.13100
C393        C  0.56365147  0.70856923  0.14154162    -0.11500
C394        C  0.60353117  0.67945880  0.13541064    -0.13100
C395        C  0.65535374  0.95581097  0.52188419    -0.11500
C396        C  0.65607758  0.95660907  0.48227019    -0.13100
C397        C  0.53247201  0.87074435  0.68767546    -0.11500
C398        C  0.50185757  0.85044429  0.71481204    -0.13100
C399        C  0.85743572  0.84967857  0.63554372    -0.11500
C400        C  0.89732696  0.82058083  0.64166015    -0.13100
C401        C  0.80499452  0.57242467  0.98228188    -0.11500
C402        C  0.80571864  0.57320635  0.02189528    -0.13100
C403        C  0.74132332  0.74802791  0.76661687    -0.11500
C404        C  0.73246916  0.79340676  0.75282225    -0.13100
C405        C  0.92885701  0.64794103  0.81478479    -0.11500
C406        C  0.95664443  0.67100079  0.78715706    -0.13100
C407        C  0.60481924  0.67831181  0.86354251    -0.11500
C408        C  0.56446585  0.70722722  0.85902290    -0.13100
C409        C  0.06323816  0.20860268  0.64170732    -0.11500
C410        C  0.10312242  0.17950216  0.63556620    -0.13100
C411        C  0.00395078  0.35831946  0.78718516    -0.11500
C412        C  0.03174387  0.38139080  0.81480933    -0.13100
C413        C  0.83643206  0.46255237  0.68763115    -0.11500
C414        C  0.81612096  0.49317264  0.71475868    -0.13100
C415        C  0.81538920  0.13755140  0.63550899    -0.11500
C416        C  0.78631753  0.09763873  0.64162256    -0.13100
C417        C  0.42810273  0.15861164  0.68765250    -0.11500
C418        C  0.45872089  0.17891756  0.71478398    -0.13100
C419        C  0.39612497  0.32203760  0.85905358    -0.11500
C420        C  0.35577221  0.35094566  0.86358021    -0.13100
C421        C  0.71355146  0.25381985  0.76649878    -0.11500
C422        C  0.75894470  0.26265734  0.75273088    -0.13100
C423        C  0.63670616  0.03837758  0.78710554    -0.11500
C424        C  0.61363584  0.06617243  0.81472454    -0.13100
C425        C  0.67285278  0.43056204  0.85896248    -0.11500
C426        C  0.64392078  0.39022310  0.86348894    -0.13100
C427        C  0.06465889  0.20718725  0.35894773    -0.11500
C428        C  0.10502441  0.17828775  0.36344661    -0.13100
C429        C  0.03270201  0.37071179  0.18770490    -0.11500
C430        C  0.00206525  0.35041532  0.21482526    -0.13100
C431        C  0.92248588  0.33901088  0.48230338    -0.11500
C432        C  0.92163996  0.33968921  0.52191635    -0.13100
C433        C  0.84711784  0.46304988  0.31481460    -0.11500
C434        C  0.82405799  0.49081383  0.28717205    -0.13100
C435        C  0.81687425  0.13899004  0.36340985    -0.11500
C436        C  0.78797635  0.09862665  0.35888608    -0.13100
C437        C  0.45681642  0.17094396  0.28712964    -0.11500
C438        C  0.42904989  0.14788826  0.31477517    -0.13100
C439        C  0.35763530  0.34963332  0.13541470    -0.11500
C440        C  0.39751557  0.32052461  0.14155509    -0.13100
C441        C  0.53916839  0.18939217  0.02187522    -0.11500
C442        C  0.53830884  0.19008069  0.98226320    -0.13100
C443        C  0.70177840  0.26664189  0.25271782    -0.11500
C444        C  0.74716675  0.27550065  0.26649919    -0.13100
C445        C  0.62433280  0.06661133  0.18763971    -0.11500
C446        C  0.64464788  0.03598811  0.21476269    -0.13100
C447        C  0.67455732  0.43146576  0.14156739    -0.11500
C448        C  0.64546056  0.39157189  0.13543684    -0.13100
loop_ 
_geom_bond_atom_site_label_1 
_geom_bond_atom_site_label_2 
_geom_bond_distance 
_geom_bond_site_symmetry_2 
_ccdc_geom_bond_type 
O1           C16   1.262       .  A
O1           Al9   1.896       .  S
C2           O12   1.257       .  A
C2            O3   1.266       .  A
C2          C445   1.446       .  S
O3           Al5   1.932       .  S
O4            C6   1.249       .  A
O4           Al5   1.886       .  S
Al5          O13   1.887       .  S
Al5          O15   1.932       .  S
Al5          O14   1.800       .  S
C6           O19   1.256       .  A
C6          C437   1.447       .  S
O7           C17   1.263       .  A
O7           Al9   1.908       .  S
O8           C21   1.264       .  A
O8          Al18   1.917       .  S
Al9          O22   1.903       .  S
Al9          O19   1.923       .  S
Al9          O14   1.799       .  S
O10          C17   1.251       .  A
O10         Al18   1.866       .  S
O11          C20   1.251       .  A
O11         Al18   1.889       .  S
O12         Al18   1.887       .  S
O13          C20   1.249       .  A
O14         Al18   1.802       .  S
O15          C16   1.268       .  A
C16         C440   1.444       .  S
C17         C443   1.414       .  S
C20         C441   1.432       .  S
C21          O22   1.258       .  A
C21         C448   1.440       .  S
O23          C38   1.261       .  A
O23         Al31   1.902       .  S
C24          O34   1.261       .  A
C24          O25   1.266       .  A
C24         C433   1.445       .  S
O25         Al27   1.935       .  S
O26          C28   1.251       .  A
O26         Al27   1.859       .  S
Al27         O35   1.879       .  S
Al27         O37   1.927       .  S
Al27         O36   1.781       .  S
C28          O41   1.264       .  A
C28         C444   1.417       .  S
O29          C39   1.261       .  A
O29         Al31   1.924       .  S
O30          C43   1.266       .  A
O30         Al40   1.908   1_455  S
Al31         O44   1.936       .  S
Al31         O41   1.926       .  S
Al31         O36   1.776       .  S
O32          C39   1.260       .  A
O32         Al40   1.919       .  S
O33          C42   1.263       .  A
O33         Al40   1.935       .  S
O34         Al40   1.902       .  S
O35          C42   1.255       .  A
O36         Al40   1.783       .  S
O37          C38   1.263       .  A
C38         C435   1.441       .  S
C39         C430   1.448   1_655  S
C42         C431   1.432       .  S
C43          O44   1.270   1_455  A
C43         C427   1.444       .  S
O45          C60   1.261       .  A
O45         Al53   1.902       .  S
C46          O56   1.261       .  A
C46          O47   1.266       .  A
C46         C424   1.445       .  S
O47         Al49   1.935       .  S
O48          C50   1.251       .  A
O48         Al49   1.859       .  S
Al49         O57   1.879       .  S
Al49         O59   1.927       .  S
Al49         O58   1.781       .  S
C50          O63   1.264       .  A
C50         C421   1.417       .  S
O51          C61   1.261       .  A
O51         Al53   1.924       .  S
O52          C65   1.266       .  A
O52         Al62   1.908       .  S
Al53         O66   1.936       .  S
Al53         O63   1.925       .  S
Al53         O58   1.776       .  S
O54          C61   1.260       .  A
O54         Al62   1.919       .  S
O55          C64   1.263       .  A
O55         Al62   1.935       .  S
O56         Al62   1.902       .  S
O57          C64   1.255       .  A
O58         Al62   1.783       .  S
O59          C60   1.263       .  A
C60         C426   1.442       .  S
C61         C418   1.448       .  S
C64         C442   1.432       .  S
C65          O66   1.270       .  A
C65         C419   1.444       .  S
O67          C82   1.262   1_655  A
O67         Al75   1.896       .  S
C68          O78   1.257       .  A
C68          O69   1.266       .  A
C68         C413   1.446       .  S
O69         Al71   1.932       .  S
O70          C72   1.249       .  A
O70         Al71   1.886       .  S
Al71         O79   1.887       .  S
Al71         O81   1.931   1_655  S
Al71         O80   1.800       .  S
C72          O85   1.256       .  A
C72         C411   1.447   1_655  S
O73          C83   1.263       .  A
O73         Al75   1.908       .  S
O74          C87   1.264       .  A
O74         Al84   1.916       .  S
Al75         O88   1.903       .  S
Al75         O85   1.923       .  S
Al75         O80   1.799       .  S
O76          C83   1.251       .  A
O76         Al84   1.865       .  S
O77          C86   1.251       .  A
O77         Al84   1.889       .  S
O78         Al84   1.887       .  S
O79          C86   1.249       .  A
O80         Al84   1.802       .  S
O81          C82   1.268       .  A
C82         C409   1.444       .  S
C83         C422   1.414       .  S
C86         C432   1.432       .  S
C87          O88   1.258       .  A
C87         C415   1.440       .  S
O89         C104   1.261       .  A
O89         Al97   1.902       .  S
C90         O100   1.261       .  A
C90          O91   1.266       .  A
C90         C405   1.445       .  S
O91         Al93   1.935       .  S
O92          C94   1.251       .  A
O92         Al93   1.859       .  S
Al93        O101   1.879       .  S
Al93        O103   1.927       .  S
Al93        O102   1.781       .  S
C94         O107   1.264       .  A
C94         C403   1.417       .  S
O95         C105   1.261       .  A
O95         Al97   1.924       .  S
O96         C109   1.266       .  A
O96        Al106   1.908       .  S
Al97        O110   1.936       .  S
Al97        O107   1.925       .  S
Al97        O102   1.776       .  S
O98         C105   1.260       .  A
O98        Al106   1.919       .  S
O99         C108   1.263       .  A
O99        Al106   1.935       .  S
O100       Al106   1.902       .  S
O101        C108   1.255       .  A
O102       Al106   1.783       .  S
O103        C104   1.263       .  A
C104        C407   1.442       .  S
C105        C414   1.448       .  S
C108        C401   1.432       .  S
C109        O110   1.270       .  A
C109        C425   1.444       .  S
O111        C126   1.262       .  A
O111       Al119   1.896   1_545  S
C112        O122   1.257       .  A
C112        O113   1.266       .  A
C112        C397   1.446       .  S
O113       Al115   1.932       .  S
O114        C116   1.249       .  A
O114       Al115   1.886   1_545  S
Al115       O123   1.887       .  S
Al115       O125   1.931   1_565  S
Al115       O124   1.800       .  S
C116        O129   1.256   1_545  A
C116        C423   1.447       .  S
O117        C127   1.263       .  A
O117       Al119   1.908       .  S
O118        C131   1.264       .  A
O118       Al128   1.916       .  S
Al119       O132   1.903       .  S
Al119       O129   1.923       .  S
Al119       O124   1.799       .  S
O120        C127   1.251       .  A
O120       Al128   1.865       .  S
O121        C130   1.251       .  A
O121       Al128   1.889       .  S
O122       Al128   1.887       .  S
O123        C130   1.249       .  A
O124       Al128   1.802       .  S
O125        C126   1.268       .  A
C126        C416   1.444       .  S
C127        C404   1.414       .  S
C130        C395   1.432       .  S
C131        O132   1.258       .  A
C131        C399   1.440       .  S
O133        C148   1.262       .  A
O133       Al141   1.896       .  S
C134        O144   1.257       .  A
C134        O135   1.266       .  A
C134        C391   1.446       .  S
O135       Al137   1.932       .  S
O136        C138   1.249       .  A
O136       Al137   1.886       .  S
Al137       O145   1.887       .  S
Al137       O147   1.931       .  S
Al137       O146   1.800       .  S
C138        O151   1.256       .  A
C138        C434   1.447       .  S
O139        C149   1.263       .  A
O139       Al141   1.908       .  S
O140        C153   1.264       .  A
O140       Al150   1.916       .  S
Al141       O154   1.903       .  S
Al141       O151   1.923       .  S
Al141       O146   1.799       .  S
O142        C149   1.251       .  A
O142       Al150   1.865       .  S
O143        C152   1.251       .  A
O143       Al150   1.889       .  S
O144       Al150   1.887       .  S
O145        C152   1.249       .  A
O146       Al150   1.802       .  S
O147        C148   1.268       .  A
C148        C447   1.444       .  S
C149        C390   1.414       .  S
C152        C402   1.432       .  S
C153        O154   1.258       .  A
C153        C394   1.440       .  S
O155        C170   1.261       .  A
O155       Al163   1.902       .  S
C156        O166   1.261       .  A
C156        O157   1.266       .  A
C156        C386   1.445       .  S
O157       Al159   1.935       .  S
O158        C160   1.251       .  A
O158       Al159   1.859       .  S
Al159       O167   1.879       .  S
Al159       O169   1.927       .  S
Al159       O168   1.781       .  S
C160        O173   1.264       .  A
C160        C389   1.417       .  S
O161        C171   1.261   1_565  A
O161       Al163   1.924       .  S
O162        C175   1.266       .  A
O162       Al172   1.908   1_545  S
Al163       O176   1.936   1_565  S
Al163       O173   1.925       .  S
Al163       O168   1.776       .  S
O164        C171   1.260       .  A
O164       Al172   1.919   1_545  S
O165        C174   1.263       .  A
O165       Al172   1.935       .  S
O166       Al172   1.902       .  S
O167        C174   1.255       .  A
O168       Al172   1.783       .  S
O169        C170   1.263       .  A
C170        C387   1.442       .  S
C171        C446   1.448       .  S
C174        C396   1.432       .  S
C175        O176   1.270       .  A
C175        C436   1.444       .  S
O177        C192   1.261       .  A
O177       Al185   1.902       .  S
C178        O188   1.261       .  A
C178        O179   1.266       .  A
C178        C412   1.445       .  S
O179       Al181   1.935       .  S
O180        C182   1.251       .  A
O180       Al181   1.859       .  S
Al181       O189   1.879       .  S
Al181       O191   1.927       .  S
Al181       O190   1.781       .  S
C182        O195   1.264       .  A
C182        C383   1.417       .  S
O183        C193   1.261       .  A
O183       Al185   1.924       .  S
O184        C197   1.266       .  A
O184       Al194   1.908       .  S
Al185       O198   1.936       .  S
Al185       O195   1.926       .  S
Al185       O190   1.776       .  S
O186        C193   1.260       .  A
O186       Al194   1.919       .  S
O187        C196   1.263       .  A
O187       Al194   1.935       .  S
O188       Al194   1.902       .  S
O189        C196   1.255       .  A
O190       Al194   1.783       .  S
O191        C192   1.263       .  A
C192        C420   1.441       .  S
C193        C378   1.448       .  S
C196        C381   1.432       .  S
C197        O198   1.270       .  A
C197        C380   1.444       .  S
O199        C214   1.262   1_545  A
O199       Al207   1.896       .  S
C200        O210   1.257       .  A
C200        O201   1.266       .  A
C200        C417   1.446       .  S
O201       Al203   1.932       .  S
O202        C204   1.249       .  A
O202       Al203   1.886       .  S
Al203       O211   1.887       .  S
Al203       O213   1.931   1_545  S
Al203       O212   1.800       .  S
C204        O217   1.256       .  A
C204        C373   1.447   1_545  S
O205        C215   1.263       .  A
O205       Al207   1.908       .  S
O206        C219   1.264       .  A
O206       Al216   1.916       .  S
Al207       O220   1.903       .  S
Al207       O217   1.923       .  S
Al207       O212   1.799       .  S
O208        C215   1.251       .  A
O208       Al216   1.865       .  S
O209        C218   1.251       .  A
O209       Al216   1.889       .  S
O210       Al216   1.887       .  S
O211        C218   1.249       .  A
O212       Al216   1.802       .  S
O213        C214   1.268       .  A
C214        C371   1.444       .  S
C215        C384   1.414       .  S
C218        C376   1.432       .  S
C219        O220   1.258       .  A
C219        C410   1.440       .  S
O221        C236   1.262       .  A
O221       Al229   1.896       .  S
C222        O232   1.257       .  A
C222        O223   1.266       .  A
C222        C429   1.446       .  S
O223       Al225   1.932       .  S
O224        C226   1.249       .  A
O224       Al225   1.885       .  S
Al225       O233   1.887       .  S
Al225       O235   1.931       .  S
Al225       O234   1.800       .  S
C226        O239   1.256       .  A
C226        C365   1.447       .  S
O227        C237   1.263       .  A
O227       Al229   1.908       .  S
O228        C241   1.264       .  A
O228       Al238   1.917       .  S
Al229       O242   1.903       .  S
Al229       O239   1.923       .  S
Al229       O234   1.799       .  S
O230        C237   1.251       .  A
O230       Al238   1.865       .  S
O231        C240   1.251       .  A
O231       Al238   1.889       .  S
O232       Al238   1.887       .  S
O233        C240   1.249       .  A
O234       Al238   1.802       .  S
O235        C236   1.268       .  A
C236        C367   1.444       .  S
C237        C369   1.414       .  S
C240        C382   1.432       .  S
C241        O242   1.258       .  A
C241        C439   1.440       .  S
O243        C258   1.261       .  A
O243       Al251   1.902       .  S
C244        O254   1.261       .  A
C244        O245   1.266       .  A
C244        C438   1.445       .  S
O245       Al247   1.935       .  S
O246        C248   1.251       .  A
O246       Al247   1.859       .  S
Al247       O255   1.879       .  S
Al247       O257   1.927       .  S
Al247       O256   1.781       .  S
C248        O261   1.264       .  A
C248        C370   1.417       .  S
O249        C259   1.261       .  A
O249       Al251   1.924       .  S
O250        C263   1.266       .  A
O250       Al260   1.908   1_565  S
Al251       O264   1.936       .  S
Al251       O261   1.925       .  S
Al251       O256   1.776       .  S
O252        C259   1.260   1_565  A
O252       Al260   1.919   1_565  S
O253        C262   1.263       .  A
O253       Al260   1.935       .  S
O254       Al260   1.902       .  S
O255        C262   1.255       .  A
O256       Al260   1.783       .  S
O257        C258   1.263       .  A
C258        C428   1.442       .  S
C259        C363   1.448   1_545  S
C262        C375   1.432       .  S
C263        O264   1.270   1_565  A
C263        C362   1.444       .  S
O265        C280   1.261       .  A
O265       Al273   1.902       .  S
C266        O276   1.261       .  A
C266        O267   1.266       .  A
C266        C374   1.445       .  S
O267       Al269   1.935       .  S
O268        C270   1.251       .  A
O268       Al269   1.859       .  S
Al269       O277   1.879       .  S
Al269       O279   1.927       .  S
Al269       O278   1.781       .  S
C270        O283   1.264       .  A
C270        C360   1.417       .  S
O271        C281   1.261       .  A
O271       Al273   1.924       .  S
O272        C285   1.266       .  A
O272       Al282   1.908       .  S
Al273       O286   1.936       .  S
Al273       O283   1.925       .  S
Al273       O278   1.776       .  S
O274        C281   1.260       .  A
O274       Al282   1.919       .  S
O275        C284   1.263       .  A
O275       Al282   1.935       .  S
O276       Al282   1.902       .  S
O277        C284   1.255       .  A
O278       Al282   1.783       .  S
O279        C280   1.263       .  A
C280        C379   1.442       .  S
C281        C398   1.448       .  S
C284        C357   1.432       .  S
C285        O286   1.270       .  A
C285        C408   1.444       .  S
O287        C302   1.262       .  A
O287       Al295   1.896   1_655  S
C288        O298   1.257       .  A
C288        O289   1.266       .  A
C288        C377   1.446       .  S
O289       Al291   1.932       .  S
O290        C292   1.249       .  A
O290       Al291   1.886   1_655  S
Al291       O299   1.887       .  S
Al291       O301   1.931   1_455  S
Al291       O300   1.800       .  S
C292        O305   1.256       .  A
C292        C406   1.447       .  S
O293        C303   1.263       .  A
O293       Al295   1.908       .  S
O294        C307   1.264       .  A
O294       Al304   1.916       .  S
Al295       O308   1.903       .  S
Al295       O305   1.923   1_455  S
Al295       O300   1.799       .  S
O296        C303   1.251       .  A
O296       Al304   1.865       .  S
O297        C306   1.251       .  A
O297       Al304   1.889       .  S
O298       Al304   1.887       .  S
O299        C306   1.249       .  A
O300       Al304   1.802       .  S
O301        C302   1.268       .  A
C302        C400   1.444       .  S
C303        C359   1.414       .  S
C306        C356   1.432       .  S
C307        O308   1.258       .  A
C307        C372   1.440       .  S
O309        C324   1.262       .  A
O309       Al317   1.896       .  S
C310        O320   1.257       .  A
C310        O311   1.266       .  A
C310        C364   1.446       .  S
O311       Al313   1.932       .  S
O312        C314   1.249       .  A
O312       Al313   1.886       .  S
Al313       O321   1.887       .  S
Al313       O323   1.932       .  S
Al313       O322   1.800       .  S
C314        O327   1.256       .  A
C314        C385   1.447       .  S
O315        C325   1.263       .  A
O315       Al317   1.908       .  S
O316        C329   1.264       .  A
O316       Al326   1.916       .  S
Al317       O330   1.903       .  S
Al317       O327   1.922       .  S
Al317       O322   1.799       .  S
O318        C325   1.251       .  A
O318       Al326   1.865       .  S
O319        C328   1.251       .  A
O319       Al326   1.889       .  S
O320       Al326   1.887       .  S
O321        C328   1.249       .  A
O322       Al326   1.802       .  S
O323        C324   1.268       .  A
C324        C393   1.444       .  S
C325        C354   1.414       .  S
C328        C358   1.432       .  S
C329        O330   1.258       .  A
C329        C368   1.440       .  S
O331        C346   1.261       .  A
O331       Al339   1.902       .  S
C332        O342   1.261       .  A
C332        O333   1.266       .  A
C332        C366   1.445       .  S
O333       Al335   1.935       .  S
O334        C336   1.251       .  A
O334       Al335   1.859       .  S
Al335       O343   1.879       .  S
Al335       O345   1.927       .  S
Al335       O344   1.781       .  S
C336        O349   1.264       .  A
C336        C353   1.417       .  S
O337        C347   1.261   1_455  A
O337       Al339   1.924       .  S
O338        C351   1.266       .  A
O338       Al348   1.908       .  S
Al339       O352   1.936   1_455  S
Al339       O349   1.926       .  S
Al339       O344   1.776       .  S
O340        C347   1.260       .  A
O340       Al348   1.919       .  S
O341        C350   1.263       .  A
O341       Al348   1.935   1_455  S
O342       Al348   1.902   1_455  S
O343        C350   1.255       .  A
O344       Al348   1.783   1_455  S
O345        C346   1.263       .  A
C346        C361   1.442       .  S
C347        C392   1.448       .  S
C350        C355   1.432       .  S
C351        O352   1.270       .  A
C351        C388   1.444       .  S
C353        C354   1.196       .  T
C355        C356   1.204       .  T
C357        C358   1.204   1_556  T
C359        C360   1.196       .  T
C361        C362   1.211       .  T
C363        C364   1.213       .  T
C365        C366   1.213       .  T
C367        C368   1.211       .  T
C369        C370   1.196       .  T
C371        C372   1.211       .  T
C373        C374   1.213       .  T
C375        C376   1.204       .  T
C377        C378   1.213       .  T
C379        C380   1.211       .  T
C381        C382   1.204   1_556  T
C383        C384   1.196       .  T
C385        C386   1.212       .  T
C387        C388   1.211       .  T
C389        C390   1.196       .  T
C391        C392   1.213       .  T
C393        C394   1.211       .  T
C395        C396   1.204       .  T
C397        C398   1.213       .  T
C399        C400   1.211       .  T
C401        C402   1.204   1_556  T
C403        C404   1.196       .  T
C405        C406   1.212       .  T
C407        C408   1.211       .  T
C409        C410   1.211       .  T
C411        C412   1.213       .  T
C413        C414   1.213       .  T
C415        C416   1.211       .  T
C417        C418   1.213       .  T
C419        C420   1.210       .  T
C421        C422   1.196       .  T
C423        C424   1.212       .  T
C425        C426   1.211       .  T
C427        C428   1.211       .  T
C429        C430   1.213       .  T
C431        C432   1.204       .  T
C433        C434   1.212       .  T
C435        C436   1.210       .  T
C437        C438   1.212       .  T
C439        C440   1.211       .  T
C441        C442   1.204   1_554  T
C443        C444   1.196       .  T
C445        C446   1.213       .  T
C447        C448   1.211       .  T
