geometry optimzed in LAMMPS
_audit_creation_date              2020-11-30 
_audit_creation_method            'lammps2cif' 
_symmetry_space_group_name_H-M    'P1' 
_symmetry_Int_Tables_number       1 
_symmetry_cell_setting            triclinic 
loop_ 
_symmetry_equiv_pos_as_xyz 
  x,y,z 
_cell_length_a                    58.85163807363857 
_cell_length_b                    59.011085262398986 
_cell_length_c                    29.712141031159184 
_cell_angle_alpha                 90.20762695627258 
_cell_angle_beta                  89.80759129797632 
_cell_angle_gamma                 89.89257290420746 
loop_ 
_atom_site_label 
_atom_site_type_symbol 
_atom_site_fract_x 
_atom_site_fract_y 
_atom_site_fract_z 
_atom_site_charge 
Zn1        Zn  0.31851395  0.19252693  0.17949191     1.49720
Zn2        Zn  0.27999420  0.17576367  0.12686094     1.49360
Zn3        Zn  0.30245644  0.22277619  0.10347889     1.49110
Zn4        Zn  0.32359448  0.17589116  0.07199634     1.49480
O5          O  0.30784612  0.19222002  0.11862188    -1.80000
O6          O  0.29187709  0.18425937  0.22018788    -0.70630
O7          O  0.25575309  0.19753646  0.13751968    -0.70450
O8          O  0.31548188  0.24529511  0.14744069    -0.69970
O9          O  0.28005855  0.15543887  0.17899449    -0.70650
O10         O  0.33169176  0.22329389  0.19854486    -0.70240
O11         O  0.26942537  0.22697508  0.09894811    -0.70830
O12         O  0.34087727  0.20067048  0.03381030    -0.70220
O13         O  0.26819794  0.16056927  0.07333786    -0.70980
O14         O  0.31780360  0.23008001  0.04707392    -0.70370
O15         O  0.29805536  0.16154769  0.02786753    -0.70830
O16         O  0.34430941  0.15388953  0.11189456    -0.70740
O17         O  0.34102176  0.16788960  0.18238125    -0.70530
C18         C  0.27888345  0.16723574  0.21449254     0.81260
C19         C  0.25325046  0.21621234  0.11746772     0.81750
C20         C  0.32759283  0.24288025  0.18235622     0.80710
C21         C  0.33428832  0.22109513  0.02603975     0.81090
C22         C  0.27678852  0.15759568  0.03485702     0.82220
C23         C  0.34910472  0.15358634  0.15446613     0.81270
Zn24       Zn  0.19134924  0.20044280  0.44035373     1.49720
Zn25       Zn  0.20067611  0.21235805  0.33555308     1.49360
Zn26       Zn  0.19233951  0.16222412  0.36919073     1.49110
Zn27       Zn  0.15189389  0.20250184  0.36859787     1.49480
O28         O  0.18371093  0.19410909  0.37781521    -1.80000
O29         O  0.21178436  0.22578558  0.44143389    -0.70630
O30         O  0.21917557  0.19403284  0.29269467    -0.70450
O31         O  0.21430811  0.15014903  0.41958344    -0.69970
O32         O  0.22312229  0.22875549  0.37020072    -0.70650
O33         O  0.21262242  0.17809879  0.46952770    -0.70240
O34         O  0.21432348  0.15896708  0.31795610    -0.70830
O35         O  0.13660220  0.17355497  0.34527523    -0.70220
O36         O  0.18267915  0.23704360  0.30509549    -0.70980
O37         O  0.16317739  0.14597732  0.34888679    -0.70370
O38         O  0.14726402  0.22848948  0.32352588    -0.70830
O39         O  0.13988452  0.21933926  0.42444382    -0.70740
O40         O  0.16615827  0.21355934  0.47703023    -0.70530
C41         C  0.22462112  0.23368916  0.41151348     0.81260
C42         C  0.22401317  0.17307425  0.29222463     0.81750
C43         C  0.22183120  0.15999299  0.45501069     0.80710
C44         C  0.14329150  0.15313213  0.33809189     0.81090
C45         C  0.16155505  0.24141612  0.30421129     0.82220
C46         C  0.14843151  0.22359591  0.46297711     0.81270
Zn47       Zn  0.28084112  0.32405089  0.37775119     1.49720
Zn48       Zn  0.32244914  0.33504005  0.32499135     1.49360
Zn49       Zn  0.31978519  0.31947325  0.43522657     1.49110
Zn50       Zn  0.31682600  0.28517712  0.36452331     1.49480
O51         O  0.31179844  0.31637069  0.37303034    -1.80000
O52         O  0.26571215  0.33069605  0.32106199    -0.70630
O53         O  0.34376751  0.35724552  0.36282407    -0.70450
O54         O  0.29206011  0.32945134  0.47172864    -0.69970
O55         O  0.29404889  0.34956402  0.28928773    -0.70650
O56         O  0.27518314  0.34953292  0.41900380    -0.70240
O57         O  0.34176881  0.34446722  0.43448719    -0.70830
O58         O  0.34118751  0.27049475  0.40082278    -0.70220
O59         O  0.33683291  0.31240498  0.27717285    -0.70980
O60         O  0.33230991  0.28962715  0.46250742    -0.70370
O61         O  0.32307820  0.27934837  0.30198362    -0.70830
O62         O  0.28952133  0.26988576  0.38564355    -0.70740
O63         O  0.26621037  0.29825442  0.40489989    -0.70530
C64         C  0.27302877  0.34344131  0.29023913     0.81260
C65         C  0.34918198  0.35828178  0.40508456     0.81750
C66         C  0.27641096  0.34298280  0.45932729     0.80710
C67         C  0.34074147  0.27210008  0.44331207     0.81090
C68         C  0.33263673  0.29112993  0.27191341     0.82220
C69         C  0.27164683  0.27754684  0.40411631     0.81270
Zn70       Zn  0.16393482  0.28712658  0.12226405     1.49720
Zn71       Zn  0.21326965  0.31036545  0.12369399     1.49360
Zn72       Zn  0.17490091  0.32247452  0.05784999     1.49110
Zn73       Zn  0.17278774  0.33476012  0.16856468     1.49480
O74         O  0.18140070  0.31491804  0.11937786    -1.80000
O75         O  0.18493726  0.26181623  0.11438244    -0.70630
O76         O  0.22959547  0.32548513  0.07432349    -0.70450
O77         O  0.16288765  0.29438330  0.02262009    -0.69970
O78         O  0.21905853  0.27793051  0.12100969    -0.70650
O79         O  0.14029792  0.28144287  0.07588302    -0.70240
O80         O  0.20257804  0.33589462  0.02663893    -0.70830
O81         O  0.14977322  0.35714168  0.13606789    -0.69580
O82         O  0.22748398  0.32320579  0.17818254    -0.70980
O83         O  0.15176087  0.34644214  0.06314184    -0.70370
O84         O  0.20240431  0.34963813  0.19797897    -0.70830
O85         O  0.16019470  0.31300708  0.21940159    -0.70740
O86         O  0.15201487  0.28138819  0.18169571    -0.70530
C87         C  0.20632986  0.26076885  0.11658376     0.81260
C88         C  0.22331827  0.33525002  0.03863464     0.81750
C89         C  0.14772865  0.28041585  0.03592757     0.80710
C90         C  0.14374482  0.35895416  0.09437375     0.81090
C91         C  0.22227550  0.34059479  0.20108207     0.82220
C92         C  0.15371779  0.29222246  0.21817425     0.81270
Zn93       Zn  0.59188349  0.94986941  0.24045747     1.49720
Zn94       Zn  0.54240496  0.95909163  0.27595784     1.49360
Zn95       Zn  0.55336353  0.95140583  0.17070364     1.49110
Zn96       Zn  0.55085730  0.91055627  0.24099246     1.49480
O97         O  0.55990269  0.94220598  0.23212300    -1.80000
O98         O  0.59574568  0.97116314  0.29282703    -0.70630
O99         O  0.53059038  0.98582322  0.24570295    -0.70450
O100        O  0.57933796  0.96402794  0.13379415    -0.69970
O101        O  0.56143161  0.97249596  0.32414701    -0.70650
O102        O  0.60370647  0.97079711  0.18893481    -0.70240
O103        O  0.53522390  0.97901740  0.17256879    -0.70830
O104        O  0.53507199  0.89802672  0.18442261    -0.70220
O105        O  0.51567002  0.94230607  0.30225633    -0.70980
O106        O  0.53364961  0.92864603  0.14062528    -0.70370
O107        O  0.52457696  0.90665013  0.28664095    -0.70830
O108        O  0.57954520  0.89463334  0.26371514    -0.70740
O109        O  0.60775792  0.92032763  0.25857431    -0.70530
C110        C  0.58214882  0.97835946  0.32285281     0.81260
C111        C  0.52871945  0.99138462  0.20481928     0.81750
C112        C  0.59600651  0.97515696  0.14971665     0.80710
C113        C  0.52737497  0.90864182  0.15026664     0.81090
C114        C  0.51138303  0.92126170  0.30469455     0.82220
C115        C  0.60026167  0.90067800  0.26952197     0.81270
Zn116      Zn  0.54272444  0.04928481  0.45443536     1.49720
Zn117      Zn  0.59188258  0.05818031  0.48950873     1.49360
Zn118      Zn  0.55091455  0.09773631  0.48934464     1.49110
Zn119      Zn  0.55332193  0.05713508  0.05972505     1.49480
O120        O  0.55998401  0.06614430  0.49833358    -1.80000
O121        O  0.56179079  0.03625930  0.40537505    -0.70630
O122        O  0.60742984  0.08713493  0.46728065    -0.70450
O123        O  0.52415530  0.10148154  0.44539440    -0.69970
O124        O  0.59546705  0.03590475  0.43880495    -0.70650
O125        O  0.51558999  0.06587553  0.42907249    -0.70240
O126        O  0.57915379  0.11289040  0.46273924    -0.70830
O127        O  0.53337171  0.07997886  0.08946909    -0.70220
O128        O  0.60399411  0.03800249  0.04186282    -0.70980
O129        O  0.53585826  0.11088537  0.04663974    -0.70370
O130        O  0.57932540  0.04494472  0.09680831    -0.70830
O131        O  0.53573963  0.02927111  0.05799339    -0.70740
O132        O  0.53171390  0.02225223  0.48481296    -0.70530
C133        C  0.58217744  0.02935987  0.40794194     0.81260
C134        C  0.59966722  0.10651321  0.45511973     0.81750
C135        C  0.51107976  0.08691437  0.42727933     0.80710
C136        C  0.52764980  0.10023053  0.08039897     0.81090
C137        C  0.59614508  0.03380831  0.08114056     0.82220
C138        C  0.52985931  0.01667584  0.52572425     0.81270
Zn139      Zn  0.46654320  0.92543004  0.49252741     1.49720
Zn140      Zn  0.43952675  0.97197099  0.49160683     1.49360
Zn141      Zn  0.41823397  0.93094555  0.44639760     1.49110
Zn142      Zn  0.43079205  0.93398496  0.05670550     1.49480
O143        O  0.43756215  0.94019652  0.99492039    -1.80000
O144        O  0.48920093  0.94740079  0.51250151    -0.70630
O145        O  0.43153804  0.98484555  0.43270150    -0.70450
O146        O  0.44048584  0.91754096  0.39628632    -0.69970
O147        O  0.47016333  0.98012668  0.51002404    -0.70650
O148        O  0.47407487  0.91732521  0.43102861    -0.70240
O149        O  0.40405994  0.96054852  0.41536993    -0.70830
O150        O  0.40668084  0.91168245  0.05383355    -0.70220
O151        O  0.41873873  0.98690579  0.03440409    -0.70980
O152        O  0.39544127  0.90890997  0.48147792    -0.70370
O153        O  0.41778785  0.96135358  0.08897341    -0.70830
O154        O  0.45858605  0.92112159  0.09003987    -0.70740
O155        O  0.47161657  0.89968838  0.03467746    -0.70530
C156        C  0.48785522  0.96858766  0.51821428     0.81260
C157        C  0.41395674  0.97985688  0.41027018     0.81750
C158        C  0.46224519  0.91509747  0.39585843     0.80710
C159        C  0.39378281  0.90360418  0.02368357     0.81090
C160        C  0.41314331  0.98092825  0.07370297     0.82220
C161        C  0.47240555  0.90608651  0.07541603     0.81270
Zn162      Zn  0.46668119  0.08380464  0.23978715     1.49720
Zn163      Zn  0.41787286  0.07978207  0.28627499     1.49360
Zn164      Zn  0.43015054  0.07750363  0.17562933     1.49110
Zn165      Zn  0.43802177  0.03855697  0.23927446     1.49480
O166        O  0.43705097  0.07046864  0.23700114    -1.80000
O167        O  0.47406448  0.09129739  0.30158568    -0.70630
O168        O  0.39501112  0.10235880  0.25241966    -0.70450
O169        O  0.45816446  0.09007127  0.14211560    -0.69970
O170        O  0.44030788  0.09261628  0.33612841    -0.70650
O171        O  0.47306461  0.10954779  0.19825126    -0.70240
O172        O  0.40594501  0.10013669  0.17967410    -0.70830
O173        O  0.41666131  0.02460768  0.19683887    -0.70220
O174        O  0.40364962  0.05030604  0.31787752    -0.70980
O175        O  0.41732876  0.05033761  0.14254245    -0.70370
O176        O  0.43036006  0.02548368  0.29810628    -0.70830
O177        O  0.46819108  0.02917790  0.21968139    -0.70740
O178        O  0.48862153  0.06097187  0.21944944    -0.70530
C179        C  0.46214153  0.09408519  0.33666473     0.81260
C180        C  0.39316515  0.10808494  0.21046495     0.81750
C181        C  0.47296954  0.10396845  0.15700402     0.80710
C182        C  0.41202725  0.03081653  0.15725644     0.81090
C183        C  0.41331451  0.03079354  0.32205226     0.82220
C184        C  0.48642185  0.03995855  0.21242440     0.81270
Zn185      Zn  0.90276619  0.95048875  0.23870637     1.49720
Zn186      Zn  0.94814988  0.95588981  0.18987093     1.49360
Zn187      Zn  0.94524388  0.95555618  0.29798012     1.49110
Zn188      Zn  0.94410333  0.91079222  0.23997300     1.49480
O189        O  0.93475767  0.94248463  0.24294312    -1.80000
O190        O  0.89839556  0.97321375  0.18843767    -0.70630
O191        O  0.95835215  0.98575084  0.20830526    -0.70450
O192        O  0.92134238  0.96987623  0.33750996    -0.69970
O193        O  0.92603255  0.96361819  0.14132954    -0.70650
O194        O  0.89087536  0.96944697  0.29360753    -0.70240
O195        O  0.96207041  0.98271538  0.28269203    -0.70830
O196        O  0.95864293  0.90038525  0.29950172    -0.70220
O197        O  0.97572677  0.93921250  0.16625738    -0.70980
O198        O  0.96585973  0.93425817  0.32983121    -0.70370
O199        O  0.97129130  0.90536596  0.19694051    -0.70830
O200        O  0.91563469  0.89483057  0.21688079    -0.70740
O201        O  0.88757122  0.92102067  0.21918501    -0.70530
C202        C  0.90864368  0.97546933  0.15105485     0.81260
C203        C  0.96375513  0.99364879  0.24634639     0.81750
C204        C  0.90135734  0.97665969  0.32850731     0.80710
C205        C  0.96914745  0.91298237  0.32770935     0.81090
C206        C  0.98250388  0.91899076  0.17223292     0.82220
C207        C  0.89512058  0.90117844  0.20939993     0.81270
Zn208      Zn  0.90124040  0.05999218  0.99129717     1.49720
Zn209      Zn  0.94952954  0.05521453  0.03531419     1.49360
Zn210      Zn  0.94206373  0.05892061  0.42594793     1.49110
Zn211      Zn  0.94126365  0.10159883  0.98938516     1.49480
O212        O  0.93326090  0.06924273  0.48554265    -1.80000
O213        O  0.89692900  0.03707202  0.04145749    -0.70630
O214        O  0.96928050  0.03270908  0.00831538    -0.70450
O215        O  0.91929753  0.04056038  0.39171731    -0.69970
O216        O  0.93018787  0.03668002  0.07631387    -0.70650
O217        O  0.88946142  0.04013725  0.43746940    -0.70240
O218        O  0.96458242  0.03603293  0.43425617    -0.70830
O219        O  0.95822312  0.11280898  0.43206304    -0.70220
O220        O  0.97080337  0.07551023  0.06968301    -0.70980
O221        O  0.95937459  0.08147371  0.39028689    -0.70370
O222        O  0.96582786  0.10869377  0.03672217    -0.70830
O223        O  0.91171008  0.11653216  0.00998034    -0.70740
O224        O  0.88499913  0.08904567  0.01068621    -0.70530
C225        C  0.91001886  0.02950699  0.07181254     0.81260
C226        C  0.97349795  0.02700115  0.46812705     0.81750
C227        C  0.89994561  0.03280473  0.40250362     0.80710
C228        C  0.96570559  0.10163258  0.39811614     0.81090
C229        C  0.97610642  0.09620556  0.06496154     0.82220
C230        C  0.89161643  0.10936352  0.01880393     0.81270
Zn231      Zn  0.03041243  0.93256475  0.49394875     1.49720
Zn232      Zn  0.07891985  0.92812567  0.03870956     1.49360
Zn233      Zn  0.06677576  0.93341245  0.42639950     1.49110
Zn234      Zn  0.06763319  0.97232018  0.48941948     1.49480
O235        O  0.06169002  0.94063230  0.48910370    -1.80000
O236        O  0.02244233  0.92390631  0.05443672    -0.70630
O237        O  0.10141188  0.90669200  0.00195934    -0.70450
O238        O  0.03895891  0.92008053  0.39410552    -0.69970
O239        O  0.05536144  0.91332790  0.08475855    -0.70650
O240        O  0.01806282  0.90922951  0.45194276    -0.70240
O241        O  0.09151681  0.91147971  0.42908398    -0.70830
O242        O  0.08985445  0.98292782  0.44421368    -0.70220
O243        O  0.09389649  0.95488831  0.07791371    -0.70980
O244        O  0.07711398  0.96067289  0.38991679    -0.70370
O245        O  0.07704016  0.98473546  0.04734049    -0.70830
O246        O  0.03948083  0.98676009  0.47347064    -0.70740
O247        O  0.01336380  0.95946795  0.47931439    -0.70530
C248        C  0.03361290  0.91566257  0.08666804     0.81260
C249        C  0.10379500  0.90253539  0.45933870     0.81750
C250        C  0.02138433  0.91033016  0.40992196     0.80710
C251        C  0.08720227  0.97857041  0.40289749     0.81090
C252        C  0.08894560  0.97616162  0.07818739     0.82220
C253        C  0.01931747  0.97958048  0.47102439     0.81270
Zn254      Zn  0.05097358  0.10289823  0.23879364     1.49720
Zn255      Zn  0.09067689  0.06178134  0.24091931     1.49360
Zn256      Zn  0.04521164  0.06190817  0.29771133     1.49110
Zn257      Zn  0.04578463  0.05625017  0.18951561     1.49480
O258        O  0.05874513  0.07089954  0.24067452    -1.80000
O259        O  0.08053819  0.11824803  0.25921944    -0.70630
O260        O  0.09633234  0.03916575  0.29058750    -0.70450
O261        O  0.03383611  0.08668373  0.33896819    -0.69970
O262        O  0.10748655  0.09091887  0.25827742    -0.70650
O263        O  0.02530683  0.11030053  0.28408943    -0.70240
O264        O  0.06398233  0.03882399  0.32935097    -0.70830
O265        O  0.01759777  0.04245605  0.20895015    -0.70220
O266        O  0.10019434  0.04121658  0.18589864    -0.70980
O267        O  0.01662306  0.04726230  0.28332245    -0.70370
O268        O  0.06552141  0.03171475  0.16332485    -0.70830
O269        O  0.03430663  0.07774230  0.14379017    -0.70740
O270        O  0.03557781  0.11132482  0.17831727    -0.70530
C271        C  0.10081394  0.11120454  0.26707947     0.81260
C272        C  0.08385861  0.03130242  0.32175584     0.81750
C273        C  0.02167459  0.10265313  0.32345816     0.80710
C274        C  0.00785221  0.04085944  0.24673315     0.81090
C275        C  0.08683588  0.02825004  0.16348490     0.82220
C276        C  0.02894592  0.09856127  0.14601030     0.81270
Zn277      Zn  0.66960661  0.17615453  0.31826112     1.49720
Zn278      Zn  0.71296155  0.17387929  0.37546759     1.49360
Zn279      Zn  0.68935745  0.22166712  0.35757309     1.49110
Zn280      Zn  0.67239411  0.18855475  0.42785522     1.49480
O281        O  0.68477318  0.19046079  0.36822811    -1.80000
O282        O  0.69500462  0.16261912  0.27472476    -0.70630
O283        O  0.73692126  0.19562965  0.38807470    -0.70450
O284        O  0.67699621  0.23031888  0.29914173    -0.69970
O285        O  0.72468581  0.15972486  0.32015551    -0.70650
O286        O  0.65444971  0.20157260  0.27953961    -0.70240
O287        O  0.72198365  0.22740163  0.36014383    -0.70830
O288        O  0.65841276  0.21834050  0.45077924    -0.70220
O289        O  0.71359888  0.15319452  0.42751594    -0.70980
O290        O  0.67418505  0.24218704  0.40245294    -0.70370
O291        O  0.69814630  0.17986615  0.47009766    -0.70830
O292        O  0.64990433  0.16387641  0.42422321    -0.70740
O293        O  0.64737103  0.15347435  0.35128020    -0.70530
C294        C  0.71610654  0.15819582  0.28136745     0.81260
C295        C  0.73843885  0.21603389  0.37586658     0.81750
C296        C  0.66194541  0.22178859  0.27388497     0.80710
C297        C  0.66214517  0.23845384  0.43709552     0.81090
C298        C  0.71272877  0.16414789  0.46419652     0.82220
C299        C  0.64186722  0.15132123  0.39320529     0.81270
Zn300      Zn  0.84236950  0.20141207  0.11861224     1.49720
Zn301      Zn  0.80082305  0.16278378  0.11675860     1.49360
Zn302      Zn  0.79756919  0.20580067  0.17453187     1.49110
Zn303      Zn  0.79914916  0.20987823  0.06624432     1.49480
O304        O  0.81019658  0.19441572  0.11942846    -1.80000
O305        O  0.85731321  0.17196059  0.09776769    -0.70630
O306        O  0.78103613  0.15227692  0.17147311    -0.70450
O307        O  0.82081076  0.21431426  0.22001831    -0.69970
O308        O  0.82943190  0.14572102  0.09774280    -0.70650
O309        O  0.85191362  0.21700551  0.17738673    -0.70240
O310        O  0.77245111  0.18625087  0.19922002    -0.70830
O311        O  0.78631592  0.23852302  0.08732996    -0.70220
O312        O  0.77744047  0.15842962  0.06811841    -0.70980
O313        O  0.78498622  0.23554767  0.16199661    -0.70370
O314        O  0.77436968  0.19228724  0.03603056    -0.70830
O315        O  0.82277701  0.22181537  0.02292858    -0.70740
O316        O  0.84965617  0.22672586  0.07376665    -0.70530
C317        C  0.84986041  0.15198345  0.08930070     0.81260
C318        C  0.76853409  0.16511869  0.19616127     0.81750
C319        C  0.84068275  0.22193480  0.21293678     0.80710
C320        C  0.78234214  0.24657682  0.12605780     0.81090
C321        C  0.76783025  0.17191910  0.04093659     0.82220
C322        C  0.84043552  0.23209405  0.03667757     0.81270
Zn323      Zn  0.67219168  0.32137950  0.17794392     1.49720
Zn324      Zn  0.68987796  0.28848074  0.10753171     1.49360
Zn325      Zn  0.66983496  0.33409255  0.06878281     1.49110
Zn326      Zn  0.71304226  0.33639326  0.12643122     1.49480
O327        O  0.68498203  0.31970382  0.11857499    -1.80000
O328        O  0.65841126  0.29153198  0.20012681    -0.70630
O329        O  0.67715549  0.27973793  0.04933854    -0.70450
O330        O  0.64708831  0.35645020  0.10199092    -0.69970
O331        O  0.67507797  0.26777590  0.15238953    -0.70650
O332        O  0.64934959  0.34576412  0.17463156    -0.70240
O333        O  0.65476804  0.30865397  0.02988137    -0.70830
O334        O  0.72477822  0.35094509  0.07168256    -0.70220
O335        O  0.72262378  0.28298891  0.10928381    -0.70980
O336        O  0.69533850  0.34781600  0.02568834    -0.70370
O337        O  0.73723061  0.31470586  0.13835893    -0.70830
O338        O  0.71330551  0.35679143  0.17921369    -0.70740
O339        O  0.69755712  0.33009962  0.22084242    -0.70530
C340        C  0.66264618  0.27143381  0.18660830     0.81260
C341        C  0.66205871  0.28831768  0.02429255     0.81750
C342        C  0.64124630  0.35831322  0.14382863     0.80710
C343        C  0.71636428  0.35244419  0.03275699     0.81090
C344        C  0.73897808  0.29438825  0.12534666     0.82220
C345        C  0.71216304  0.34576837  0.21562374     0.81270
Zn346      Zn  0.80058193  0.34714895  0.36713081     1.49720
Zn347      Zn  0.79744244  0.30440650  0.42556900     1.49360
Zn348      Zn  0.79889420  0.30002934  0.31706989     1.49110
Zn349      Zn  0.84197879  0.30831996  0.36889956     1.49480
O350        O  0.80987562  0.31552897  0.37048046    -1.80000
O351        O  0.78143162  0.35837958  0.42265385    -0.70630
O352        O  0.78400952  0.27512594  0.41262402    -0.70450
O353        O  0.77391449  0.31735836  0.28690818    -0.69970
O354        O  0.77295487  0.32462164  0.45110546    -0.70650
O355        O  0.77642247  0.35102159  0.32024582    -0.70240
O356        O  0.78626515  0.27143500  0.33808962    -0.70830
O357        O  0.84867223  0.28230463  0.32543520    -0.70220
O358        O  0.82084233  0.29469431  0.46980501    -0.70980
O359        O  0.82260315  0.28827913  0.27353157    -0.70370
O360        O  0.85235819  0.29339844  0.42796915    -0.70830
O361        O  0.85642872  0.33687768  0.34301927    -0.70740
O362        O  0.82867287  0.36336081  0.34289959    -0.70530
C363        C  0.76904880  0.34575651  0.44784548     0.81260
C364        C  0.78174366  0.26380235  0.37679446     0.81750
C365        C  0.76701411  0.33759096  0.29263868     0.80710
C366        C  0.83979864  0.27740595  0.28777319     0.81090
C367        C  0.84101363  0.28772734  0.46291130     0.82220
C368        C  0.84872121  0.35649955  0.33243927     0.81270
Zn369      Zn  0.42997749  0.43549416  0.42565213     1.49720
Zn370      Zn  0.44125663  0.47253457  0.49424299     1.49360
Zn371      Zn  0.41674422  0.43227584  0.03595495     1.49110
Zn372      Zn  0.46442451  0.42363602  0.48974627     1.49480
O373        O  0.43673342  0.44102037  0.48786390    -1.80000
O374        O  0.41706686  0.46378463  0.39579843    -0.70630
O375        O  0.43085049  0.48565997  0.05211775    -0.70450
O376        O  0.39435516  0.41015029  0.00082080    -0.69970
O377        O  0.42386861  0.48939974  0.44898607    -0.70650
O378        O  0.40563692  0.41287510  0.42831278    -0.70240
O379        O  0.40237272  0.46202989  0.06637836    -0.70830
O380        O  0.47099972  0.41358659  0.04996408    -0.70220
O381        O  0.47339415  0.47830583  0.48391688    -0.70980
O382        O  0.43825036  0.41883697  0.08649029    -0.70370
O383        O  0.48929583  0.44413295  0.47593136    -0.70830
O384        O  0.46880966  0.39894829  0.44478447    -0.70740
O385        O  0.45846402  0.42288953  0.39192232    -0.70530
C386        C  0.41564299  0.48391417  0.41125277     0.81260
C387        C  0.41252174  0.48111684  0.07268146     0.81750
C388        C  0.39279122  0.40469744  0.45865991     0.80710
C389        C  0.45951813  0.41375913  0.08589485     0.81090
C390        C  0.49027877  0.46548803  0.47605513     0.82220
C391        C  0.47134401  0.40683896  0.40550890     0.81270
Zn392      Zn  0.42538110  0.53950510  0.25420589     1.49720
Zn393      Zn  0.43294590  0.57907688  0.30848144     1.49360
Zn394      Zn  0.46703992  0.57124162  0.23722593     1.49110
Zn395      Zn  0.41755885  0.58065995  0.19865502     1.49480
O396        O  0.43563474  0.56954290  0.24706225    -1.80000
O397        O  0.39953304  0.53733694  0.29590446    -0.70630
O398        O  0.46291301  0.59225333  0.33398712    -0.70450
O399        O  0.48010257  0.54287429  0.25988416    -0.69970
O400        O  0.42237536  0.55231930  0.34659534    -0.70650
O401        O  0.44983885  0.52329624  0.28311090    -0.70240
O402        O  0.48372051  0.59496008  0.27202622    -0.70830
O403        O  0.44067384  0.59474779  0.15270665    -0.70220
O404        O  0.40841072  0.60142143  0.30660632    -0.70980
O405        O  0.47251852  0.57686410  0.17385810    -0.70370
O406        O  0.39544041  0.60279398  0.23510369    -0.70830
O407        O  0.40349116  0.55267054  0.16115321    -0.70740
O408        O  0.41824466  0.52364359  0.19821892    -0.70530
C409        C  0.40739438  0.53777787  0.33541595     0.81260
C410        C  0.48118779  0.59819041  0.31390536     0.81750
C411        C  0.47100256  0.52652711  0.28091699     0.80710
C412        C  0.46136116  0.58852195  0.14574016     0.81090
C413        C  0.39467713  0.60880354  0.27710615     0.82220
C414        C  0.40793714  0.53133579  0.16434077     0.81270
Zn415      Zn  0.54824681  0.41021103  0.23861434     1.49720
Zn416      Zn  0.58834426  0.45024334  0.23999501     1.49360
Zn417      Zn  0.53745148  0.45937249  0.21043617     1.49110
Zn418      Zn  0.55083359  0.44858336  0.31300211     1.49480
O419        O  0.55648580  0.44174189  0.24973458    -1.80000
O420        O  0.57709033  0.39516065  0.21344278    -0.70630
O421        O  0.59106966  0.47218526  0.18942224    -0.70450
O422        O  0.51336630  0.44163891  0.17754515    -0.69970
O423        O  0.60459778  0.42165241  0.21760472    -0.70650
O424        O  0.52215930  0.40609913  0.19355571    -0.70240
O425        O  0.55534307  0.47904993  0.16955722    -0.70830
O426        O  0.52362351  0.46688014  0.31777087    -0.70220
O427        O  0.60124856  0.47165993  0.29022099    -0.70980
O428        O  0.52011057  0.48003882  0.24806591    -0.70370
O429        O  0.57298060  0.47103248  0.33973834    -0.70830
O430        O  0.54105985  0.42200835  0.34980041    -0.70740
O431        O  0.53168511  0.39828120  0.29442770    -0.70530
C432        C  0.59743256  0.40199155  0.20578620     0.81260
C433        C  0.57648946  0.48287990  0.16649978     0.81750
C434        C  0.50921648  0.42057393  0.17493145     0.80710
C435        C  0.51489314  0.48001682  0.28938896     0.81090
C436        C  0.59135153  0.47970392  0.32524459     0.82220
C437        C  0.52916045  0.40573450  0.33449512     0.81270
Zn438      Zn  0.57485091  0.53707947  0.49540953     1.49720
Zn439      Zn  0.52852754  0.56117686  0.47264013     1.49360
Zn440      Zn  0.55878206  0.57583057  0.04912231     1.49110
Zn441      Zn  0.57622031  0.58114825  0.44239847     1.49480
O442        O  0.55925304  0.56544653  0.48815405    -1.80000
O443        O  0.55223882  0.51330407  0.50033835    -0.70630
O444        O  0.50602236  0.57229244  0.01901473    -0.70450
O445        O  0.56621350  0.54946514  0.09010399    -0.69970
O446        O  0.52437220  0.52884582  0.45993125    -0.70650
O447        O  0.59413142  0.53520759  0.04896194    -0.70240
O448        O  0.52841793  0.58943765  0.06839392    -0.70830
O449        O  0.59820516  0.60113150  0.48328909    -0.70220
O450        O  0.52147018  0.57882821  0.41949541    -0.70980
O451        O  0.58358281  0.59770059  0.05319914    -0.70370
O452        O  0.55234544  0.59922991  0.40356162    -0.70830
O453        O  0.59060642  0.55577172  0.39798884    -0.70740
O454        O  0.59123275  0.52589867  0.44280586    -0.70530
C455        C  0.53452857  0.51185043  0.47655174     0.81260
C456        C  0.50869164  0.58467514  0.05361906     0.81750
C457        C  0.58262411  0.53561323  0.08488365     0.80710
C458        C  0.59818499  0.60566625  0.02598155     0.81090
C459        C  0.53135755  0.59414726  0.39717642     0.82220
C460        C  0.59449031  0.53455081  0.40465750     0.81270
Zn461      Zn  0.69280345  0.84954514  0.36474189     1.49720
Zn462      Zn  0.65275823  0.80856988  0.36622437     1.49360
Zn463      Zn  0.69863120  0.80350423  0.31735144     1.49110
Zn464      Zn  0.69722626  0.80754849  0.42533270     1.49480
O465        O  0.68466100  0.81763659  0.36941126    -1.80000
O466        O  0.66313515  0.86510824  0.34612507    -0.70630
O467        O  0.64732535  0.78171868  0.32243372    -0.70450
O468        O  0.70736993  0.82499303  0.26850577    -0.69970
O469        O  0.63675381  0.83734811  0.34398533    -0.70650
O470        O  0.71544143  0.85376682  0.31378198    -0.70240
O471        O  0.68165100  0.77630355  0.29356013    -0.70830
O472        O  0.72454056  0.79049114  0.41159486    -0.70220
O473        O  0.64214983  0.79353862  0.42549047    -0.70980
O474        O  0.72813445  0.79264536  0.33705779    -0.70370
O475        O  0.67586960  0.78703601  0.45703896    -0.70830
O476        O  0.71122105  0.83139161  0.46490316    -0.70740
O477        O  0.71229441  0.86104997  0.41917553    -0.70530
C478        C  0.64313784  0.85782637  0.33674801     0.81260
C479        C  0.66112727  0.77011324  0.29848753     0.81750
C480        C  0.71841514  0.84294299  0.27720422     0.80710
C481        C  0.73568282  0.78778706  0.37558898     0.81090
C482        C  0.65466015  0.78335823  0.45424618     0.82220
C483        C  0.71888782  0.85084592  0.45480089     0.81270
Zn484      Zn  0.80154189  0.80861592  0.05065192     1.49720
Zn485      Zn  0.84422430  0.80881353  0.11399461     1.49360
Zn486      Zn  0.80303846  0.84942713  0.11594736     1.49110
Zn487      Zn  0.79750163  0.80118265  0.15993762     1.49480
O488        O  0.81187161  0.81728861  0.11026747    -1.80000
O489        O  0.82428873  0.79180150  0.01386952    -0.70630
O490        O  0.85974620  0.83819231  0.13306851    -0.70450
O491        O  0.78305631  0.86137321  0.06247981    -0.69970
O492        O  0.85509099  0.79130853  0.05703538    -0.70650
O493        O  0.78260191  0.83131572  0.01751796    -0.70240
O494        O  0.83251712  0.86526234  0.13366316    -0.70830
O495        O  0.77843651  0.82070384  0.19989983    -0.70220
O496        O  0.85102672  0.78449453  0.16181079    -0.70980
O497        O  0.78043196  0.85433790  0.16701973    -0.70370
O498        O  0.81769273  0.78035487  0.19536700    -0.70830
O499        O  0.77572138  0.78076979  0.13294805    -0.70740
O500        O  0.77931575  0.78544063  0.05890688    -0.70530
C501        C  0.84412445  0.78458463  0.02239641     0.81260
C502        C  0.85286619  0.85844358  0.14124506     0.81750
C503        C  0.77527917  0.85087164  0.02805047     0.80710
C504        C  0.77212306  0.84118510  0.19653027     0.81090
C505        C  0.83836126  0.77466699  0.19049330     0.82220
C506        C  0.77048937  0.77619721  0.09273162     0.81270
Zn507      Zn  0.67566217  0.72168260  0.12031177     1.49720
Zn508      Zn  0.66898189  0.67336392  0.16492019     1.49360
Zn509      Zn  0.67453565  0.68520978  0.05245721     1.49110
Zn510      Zn  0.71351315  0.68256172  0.11417797     1.49480
O511        O  0.68200155  0.69012311  0.11503131    -1.80000
O512        O  0.66690549  0.72985224  0.18088362    -0.70630
O513        O  0.64711997  0.65108247  0.12831892    -0.70450
O514        O  0.66109104  0.71304996  0.02046865    -0.69970
O515        O  0.65443306  0.69750810  0.21053059    -0.70650
O516        O  0.65309493  0.73533265  0.07830172    -0.70240
O517        O  0.65237303  0.66073706  0.05542366    -0.70830
O518        O  0.72266637  0.65944741  0.06937915    -0.70220
O519        O  0.69559872  0.65828522  0.20459512    -0.70980
O520        O  0.70190876  0.67474189  0.01560021    -0.70370
O521        O  0.72596168  0.67332224  0.17196662    -0.70830
O522        O  0.72938173  0.70967527  0.09678988    -0.70740
O523        O  0.70359462  0.73717251  0.10587830    -0.70530
C524        C  0.65771517  0.71907404  0.21271360     0.81260
C525        C  0.64307307  0.64869007  0.08566426     0.81750
C526        C  0.65266372  0.73129627  0.03645871     0.80710
C527        C  0.71913582  0.66339475  0.02822170     0.81090
C528        C  0.71709509  0.66240748  0.20393670     0.82220
C529        C  0.72328895  0.73019493  0.09584762     0.81270
Zn530      Zn  0.79719230  0.70539568  0.31623232     1.49720
Zn531      Zn  0.80288712  0.66018369  0.36586818     1.49360
Zn532      Zn  0.84414524  0.69951906  0.36350709     1.49110
Zn533      Zn  0.80374076  0.70485948  0.42443855     1.49480
O534        O  0.81210100  0.69192850  0.36625442    -1.80000
O535        O  0.77261875  0.68587078  0.28972861    -0.70630
O536        O  0.83198817  0.64333201  0.38329965    -0.70450
O537        O  0.85275309  0.71456685  0.30287705    -0.69970
O538        O  0.78234731  0.65108374  0.31081079    -0.70650
O539        O  0.81870825  0.71744388  0.27068177    -0.70240
O540        O  0.85935906  0.67015326  0.38421619    -0.70830
O541        O  0.82903362  0.71587445  0.46470740    -0.70220
O542        O  0.78008525  0.65449500  0.41546823    -0.70980
O543        O  0.85166289  0.72512405  0.40836431    -0.70370
O544        O  0.78071016  0.68604696  0.45646957    -0.70830
O545        O  0.78897346  0.73355847  0.41182701    -0.70740
O546        O  0.78334999  0.73322080  0.33769474    -0.70530
C547        C  0.76923694  0.66460141  0.28916522     0.81260
C548        C  0.85223796  0.65001295  0.39231399     0.81750
C549        C  0.83978346  0.72197104  0.27169019     0.80710
C550        C  0.84455271  0.72837770  0.44835718     0.81090
C551        C  0.77266027  0.66657420  0.44776310     0.82220
C552        C  0.78215922  0.74262188  0.37590183     0.81270
Zn553      Zn  0.92782046  0.42959949  0.30490797     1.49720
Zn554      Zn  0.92745583  0.47033108  0.24309363     1.49360
Zn555      Zn  0.96542052  0.43065180  0.23776794     1.49110
Zn556      Zn  0.91689787  0.42600050  0.19140602     1.49480
O557        O  0.93373440  0.43837554  0.24300084    -1.80000
O558        O  0.91630375  0.45591472  0.34354778    -0.70630
O559        O  0.95592901  0.48553682  0.25055413    -0.70450
O560        O  0.97970934  0.41034553  0.28291606    -0.69970
O561        O  0.90806952  0.48170164  0.29213321    -0.70650
O562        O  0.95550899  0.41636232  0.33865151    -0.70240
O563        O  0.98213017  0.45834445  0.24378013    -0.70830
O564        O  0.94060564  0.41196741  0.14486456    -0.70220
O565        O  0.91539556  0.48265388  0.18736486    -0.70980
O566        O  0.97330956  0.41978290  0.17877542    -0.70370
O567        O  0.90162845  0.45252107  0.15230981    -0.70830
O568        O  0.89444174  0.40350320  0.22469750    -0.70740
O569        O  0.90359715  0.40710257  0.29823293    -0.70530
C570        C  0.90841255  0.47519886  0.33255128     0.81260
C571        C  0.97623688  0.47873082  0.24896584     0.81750
C572        C  0.97465969  0.40922003  0.32422066     0.80710
C573        C  0.96242444  0.41298091  0.14492087     0.81090
C574        C  0.90494554  0.47404033  0.15458436     0.82220
C575        C  0.89179468  0.39846762  0.26675334     0.81270
Zn576      Zn  0.90411887  0.55955995  0.49333075     1.49720
Zn577      Zn  0.94967779  0.55904002  0.43747942     1.49360
Zn578      Zn  0.94363015  0.60072696  0.49450592     1.49110
Zn579      Zn  0.94872931  0.55502232  0.04615203     1.49480
O580        O  0.93595164  0.56876211  0.49396591    -1.80000
O581        O  0.89875981  0.53621456  0.44470998    -0.70630
O582        O  0.96046885  0.58333115  0.39481716    -0.70450
O583        O  0.91416783  0.61573370  0.47331766    -0.69970
O584        O  0.93147983  0.53489184  0.40729965    -0.70650
O585        O  0.88733423  0.58838116  0.47438153    -0.70240
O586        O  0.96903516  0.60763865  0.44875789    -0.70830
O587        O  0.95988656  0.57730743  0.09149419    -0.70220
O588        O  0.97861901  0.54546866  0.45308289    -0.70980
O589        O  0.95916990  0.61005197  0.05430802    -0.70370
O590        O  0.97729097  0.54148906  0.02760893    -0.70830
O591        O  0.92904913  0.53033988  0.07206734    -0.70740
O592        O  0.89443677  0.53955207  0.04852735    -0.70530
C593        C  0.91153836  0.52758025  0.41471895     0.81260
C594        C  0.97251691  0.59959027  0.40955664     0.81750
C595        C  0.89401814  0.60854153  0.46506172     0.80710
C596        C  0.96560367  0.59796989  0.08762703     0.81090
C597        C  0.98733612  0.53975096  0.49010906     0.82220
C598        C  0.90775766  0.52670391  0.07121012     0.81270
Zn599      Zn  0.05017970  0.45534377  0.43710391     1.49720
Zn600      Zn  0.09339696  0.45058116  0.49452903     1.49360
Zn601      Zn  0.04861686  0.45551773  0.04544281     1.49110
Zn602      Zn  0.05271328  0.41064989  0.99388612     1.49480
O603        O  0.06150915  0.44238439  0.49122536    -1.80000
O604        O  0.07347758  0.46973205  0.39673431    -0.70630
O605        O  0.09763101  0.47413061  0.04325966    -0.70450
O606        O  0.03787469  0.48530657  0.02801803    -0.69970
O607        O  0.10478148  0.46902488  0.43836603    -0.70650
O608        O  0.03345158  0.48246634  0.45371061    -0.70240
O609        O  0.07145644  0.46383217  0.09277667    -0.70830
O610        O  0.02525726  0.40530631  0.03536551    -0.70220
O611        O  0.10871184  0.42180034  0.01829821    -0.70980
O612        O  0.02123380  0.43849258  0.06948408    -0.70370
O613        O  0.08090974  0.39546883  0.02099966    -0.70830
O614        O  0.03833686  0.39989693  0.43391723    -0.70740
O615        O  0.02934109  0.43385138  0.40618473    -0.70530
C616        C  0.09364623  0.47636512  0.40435056     0.81260
C617        C  0.08824792  0.47615408  0.08157796     0.81750
C618        C  0.03209667  0.49330625  0.49038535     0.80710
C619        C  0.01424593  0.41849226  0.06148909     0.81090
C620        C  0.10110755  0.40229867  0.03009135     0.82220
C621        C  0.02677884  0.41247034  0.40730698     0.81270
Zn622      Zn  0.05123743  0.55686391  0.30014704     1.49720
Zn623      Zn  0.04843611  0.55738305  0.18967003     1.49360
Zn624      Zn  0.05362409  0.60175330  0.24368955     1.49110
Zn625      Zn  0.09440267  0.56059961  0.24211635     1.49480
O626        O  0.06220825  0.56951789  0.24453714    -1.80000
O627        O  0.02923213  0.53467829  0.28411859    -0.70630
O628        O  0.02719207  0.57787361  0.15620598    -0.70450
O629        O  0.03676149  0.61162278  0.30237316    -0.69970
O630        O  0.02843143  0.53352631  0.20915703    -0.70650
O631        O  0.03311325  0.57841661  0.33691966    -0.70240
O632        O  0.02841044  0.60909410  0.19744289    -0.70830
O633        O  0.11036702  0.59003838  0.22347111    -0.70220
O634        O  0.06937004  0.54067192  0.14864226    -0.70980
O635        O  0.08320022  0.61721766  0.22409083    -0.70370
O636        O  0.09945961  0.53708933  0.19278467    -0.70830
O637        O  0.10557946  0.54117686  0.29734788    -0.70740
O638        O  0.07312366  0.53758276  0.33469724    -0.70530
C639        C  0.02224856  0.52666741  0.24742796     0.81260
C640        C  0.01978255  0.59753023  0.16554812     0.81750
C641        C  0.02796557  0.59919380  0.33305779     0.80710
C642        C  0.10351981  0.61035103  0.21572929     0.81090
C643        C  0.08813114  0.53131930  0.15829076     0.82220
C644        C  0.09368981  0.53187665  0.32841906     0.81270
Zn645      Zn  0.32428291  0.83486978  0.16134495     1.49720
Zn646      Zn  0.32201705  0.81887331  0.05193810     1.49360
Zn647      Zn  0.31343257  0.78556710  0.12389758     1.49110
Zn648      Zn  0.28293944  0.82779436  0.10613432     1.49480
O649        O  0.31273943  0.81673878  0.11349468    -1.80000
O650        O  0.34522682  0.85748871  0.12334750    -0.70630
O651        O  0.33633060  0.78907880  0.02752327    -0.70450
O652        O  0.31945479  0.78055625  0.18726244    -0.69970
O653        O  0.34362248  0.84380284  0.05228654    -0.70650
O654        O  0.33939102  0.81159127  0.20564652    -0.70240
O655        O  0.33700513  0.76824227  0.08939208    -0.70830
O656        O  0.26601067  0.80385562  0.07705093    -0.70220
O657        O  0.29490164  0.82927113  0.01430620    -0.70980
O658        O  0.28453168  0.77323574  0.10149508    -0.70370
O659        O  0.28173556  0.85355240  0.06471357    -0.70830
O660        O  0.26704890  0.83519806  0.16189316    -0.70740
O661        O  0.29639798  0.84838905  0.20042986    -0.70530
C662        C  0.35069523  0.85810733  0.08101796     0.81260
C663        C  0.34178900  0.77088406  0.04814888     0.81750
C664        C  0.33258091  0.79125505  0.21360785     0.80710
C665        C  0.26851974  0.78267442  0.07989645     0.81090
C666        C  0.28122813  0.84515339  0.02555862     0.82220
C667        C  0.27492204  0.84459764  0.19668534     0.81270
Zn668      Zn  0.17582509  0.83453822  0.32550076     1.49720
Zn669      Zn  0.17969544  0.82082509  0.43604607     1.49360
Zn670      Zn  0.16984585  0.78668953  0.37101813     1.49110
Zn671      Zn  0.21686107  0.81291555  0.36822575     1.49480
O672        O  0.18516996  0.81512501  0.37337110    -1.80000
O673        O  0.15410930  0.85675559  0.36212498    -0.70630
O674        O  0.16693866  0.79218905  0.46822341    -0.70450
O675        O  0.16124849  0.77934071  0.31040130    -0.69970
O676        O  0.15722420  0.84513015  0.43429424    -0.70650
O677        O  0.16183272  0.81274526  0.27549555    -0.70240
O678        O  0.14422236  0.78142900  0.41343487    -0.70830
O679        O  0.22480141  0.78228969  0.38602271    -0.70220
O680        O  0.20786916  0.83343779  0.46726520    -0.70980
O681        O  0.19167787  0.76392329  0.38919292    -0.70370
O682        O  0.23221514  0.83342393  0.41007699    -0.70830
O683        O  0.22955464  0.82097605  0.30893583    -0.70740
O684        O  0.20542309  0.84901604  0.29462160    -0.70530
C685        C  0.14899452  0.85815406  0.40449697     0.81260
C686        C  0.15139200  0.77907393  0.45328443     0.81750
C687        C  0.15891603  0.79111621  0.27535930     0.80710
C688        C  0.21294872  0.76482319  0.39394483     0.81090
C689        C  0.22710403  0.83845651  0.45018303     0.82220
C690        C  0.22472467  0.83910637  0.28830802     0.81270
Zn691      Zn  0.32174842  0.69385858  0.31131602     1.49720
Zn692      Zn  0.32703308  0.67673750  0.41895003     1.49360
Zn693      Zn  0.30918381  0.72513459  0.38801717     1.49110
Zn694      Zn  0.28212410  0.68049866  0.36730258     1.49480
O695        O  0.31161211  0.69411114  0.37276633    -1.80000
O696        O  0.34361709  0.66874145  0.30812876    -0.70630
O697        O  0.34518739  0.69986441  0.45982421    -0.70450
O698        O  0.31931184  0.74704247  0.34052282    -0.69970
O699        O  0.34700399  0.65464130  0.37830942    -0.70650
O700        O  0.33548381  0.72399081  0.29070141    -0.70240
O701        O  0.32801752  0.73183193  0.43913034    -0.70830
O702        O  0.25949464  0.70437840  0.36690019    -0.70220
O703        O  0.30173219  0.66197224  0.46265400    -0.70980
O704        O  0.27791211  0.73068027  0.40656191    -0.70370
O705        O  0.27129533  0.66394270  0.41936436    -0.70830
O706        O  0.27752666  0.66173389  0.31372231    -0.70740
O707        O  0.29527714  0.68624418  0.26993092    -0.70530
C708        C  0.35153031  0.65430521  0.33563670     0.81260
C709        C  0.34166546  0.72127304  0.46413079     0.81750
C710        C  0.33108512  0.74389379  0.30520302     0.80710
C711        C  0.25982804  0.72148149  0.39262859     0.81090
C712        C  0.28027711  0.65913172  0.45648095     0.82220
C713        C  0.27992305  0.67139984  0.27622925     0.81270
Zn714      Zn  0.19499774  0.66358324  0.11914222     1.49720
Zn715      Zn  0.15435436  0.70323583  0.12003262     1.49360
Zn716      Zn  0.20358559  0.71446997  0.14845968     1.49110
Zn717      Zn  0.19296406  0.70103174  0.04632758     1.49480
O718        O  0.18609559  0.69524468  0.10943632    -1.80000
O719        O  0.16606404  0.64690515  0.13830789    -0.70630
O720        O  0.14981189  0.72893475  0.16624973    -0.70450
O721        O  0.22410822  0.69695689  0.18800513    -0.69970
O722        O  0.13906503  0.67404969  0.14188572    -0.70650
O723        O  0.21669070  0.66103616  0.17073165    -0.70240
O724        O  0.18540442  0.73779362  0.18253182    -0.70830
O725        O  0.20978201  0.72916229  0.04154997    -0.70220
O726        O  0.14282184  0.71988171  0.06438870    -0.70980
O727        O  0.22334725  0.73267751  0.11098409    -0.70370
O728        O  0.16590818  0.70899533  0.00889048    -0.70830
O729        O  0.21647751  0.67951335  0.02062021    -0.70740
O730        O  0.21695312  0.65109485  0.06927998    -0.70530
C731        C  0.14595105  0.65368280  0.14849681     0.81260
C732        C  0.16425322  0.74180341  0.18531197     0.81750
C733        C  0.22781849  0.67590386  0.19224837     0.80710
C734        C  0.22272756  0.73825390  0.06996126     0.81090
C735        C  0.14999864  0.72157373  0.02402070     0.82220
C736        C  0.22522137  0.66118041  0.03488171     0.81270
C737        C  0.24639094  0.65351567  0.01349452    -0.09150
C738        C  0.26417124  0.65300702  0.49194317    -0.10700
C739        C  0.24628543  0.66916459  0.21998055    -0.09150
C740        C  0.26283780  0.66784744  0.24324126    -0.10700
C741        C  0.14354347  0.74121651  0.99798728    -0.09150
C742        C  0.14450060  0.75929403  0.47865958    -0.10700
C743        C  0.15524355  0.77805450  0.23493182    -0.09150
C744        C  0.15703753  0.76181642  0.20996678    -0.10700
C745        C  0.23929761  0.73171386  0.40410526    -0.09150
C746        C  0.22448857  0.74514477  0.40545875    -0.10700
C747        C  0.35077745  0.75163482  0.02346432    -0.09150
C748        C  0.35134766  0.73505042  0.49924323    -0.10700
C749        C  0.33803021  0.76341366  0.27958027    -0.09150
C750        C  0.33898813  0.77888820  0.25309664    -0.10700
C751        C  0.25202219  0.76892543  0.06026655    -0.09150
C752        C  0.23751533  0.75529736  0.05624830    -0.10700
C753        C  0.25844700  0.84930396  0.23233295    -0.09150
C754        C  0.24214210  0.84768437  0.25769436    -0.10700
C755        C  0.24475468  0.84783088  0.47714961    -0.09150
C756        C  0.26210518  0.84995627  0.99786318    -0.10700
C757        C  0.11883832  0.62571433  0.19321567    -0.09150
C758        C  0.13095218  0.63817015  0.17147027    -0.10700
C759        C  0.10205595  0.51262201  0.35469745    -0.09150
C760        C  0.10206784  0.49508528  0.37667293    -0.10700
C761        C  0.09495587  0.51199172  0.13200999    -0.09150
C762        C  0.09470892  0.49467930  0.11026615    -0.10700
C763        C  0.98283861  0.60604246  0.11847952    -0.09150
C764        C  0.00003324  0.60557506  0.14106825    -0.10700
C765        C  0.00949960  0.60724816  0.36132707    -0.09150
C766        C  0.99205749  0.60689832  0.38339469    -0.10700
C767        C  0.00849157  0.52925198  0.48932102    -0.09150
C768        C  0.02225514  0.51473738  0.48961039    -0.10700
C769        C  0.99311127  0.49482429  0.25113954    -0.09150
C770        C  0.00677433  0.50922242  0.24959510    -0.10700
C771        C  0.97640214  0.40871146  0.10576871    -0.09150
C772        C  0.99321358  0.41102054  0.08238080    -0.10700
C773        C  0.99235504  0.40263772  0.35523702    -0.09150
C774        C  0.00896034  0.40333405  0.37927622    -0.10700
C775        C  0.89859938  0.48996164  0.11931433    -0.09150
C776        C  0.89951605  0.50690822  0.09581852    -0.10700
C777        C  0.90279428  0.49162483  0.36624826    -0.09150
C778        C  0.90401055  0.50820371  0.38980488    -0.10700
C779        C  0.87885704  0.62314433  0.44037390    -0.09150
C780        C  0.86701968  0.63487832  0.41663657    -0.10700
C781        C  0.73674474  0.65797616  0.99668667    -0.09150
C782        C  0.75356541  0.65899480  0.47356159    -0.10700
C783        C  0.73270091  0.65603813  0.23981906    -0.09150
C784        C  0.74949802  0.65663933  0.26390029    -0.10700
C785        C  0.84664120  0.75560324  0.21646516    -0.09150
C786        C  0.84754928  0.73880223  0.23991117    -0.10700
C787        C  0.85226461  0.76581257  0.99507845    -0.09150
C788        C  0.85190403  0.74816043  0.47367739    -0.10700
C789        C  0.75390681  0.76005425  0.08533645    -0.09150
C790        C  0.73959866  0.74620900  0.08564074    -0.10700
C791        C  0.75687034  0.77741310  0.37828380    -0.09150
C792        C  0.77126293  0.76350732  0.37870756    -0.10700
C793        C  0.65247199  0.73280342  0.25186899    -0.09150
C794        C  0.65390154  0.74934854  0.27625108    -0.10700
C795        C  0.64576407  0.76565685  0.48262589    -0.09150
C796        C  0.64541127  0.74917067  0.00666269    -0.10700
C797        C  0.73793031  0.85932353  0.48153824    -0.09150
C798        C  0.75570135  0.85931501  0.00284285    -0.10700
C799        C  0.75360722  0.84860726  0.22456969    -0.09150
C800        C  0.73670391  0.84915782  0.24765517    -0.10700
C801        C  0.61503507  0.62005349  0.04641835    -0.09150
C802        C  0.62749395  0.63203484  0.06843315    -0.10700
C803        C  0.59919692  0.50062413  0.34707076    -0.09150
C804        C  0.59994509  0.51828966  0.36887620    -0.10700
C805        C  0.58570106  0.51778179  0.11626579    -0.09150
C806        C  0.58370895  0.50110884  0.13880362    -0.10700
C807        C  0.36585160  0.63714970  0.31569879    -0.09150
C808        C  0.37786424  0.62434634  0.29430905    -0.10700
C809        C  0.50067431  0.60559169  0.33960908    -0.09150
C810        C  0.51728028  0.60470516  0.36360467    -0.10700
C811        C  0.47349602  0.59372122  0.10515312    -0.09150
C812        C  0.48887984  0.59201276  0.07832769    -0.10700
C813        C  0.48515851  0.51035740  0.30028016    -0.09150
C814        C  0.49861748  0.49563451  0.30357991    -0.10700
C815        C  0.49111540  0.40005261  0.37945140    -0.09150
C816        C  0.50929527  0.39907224  0.36002613    -0.10700
C817        C  0.47278914  0.41105041  0.12625922    -0.09150
C818        C  0.48905968  0.41339280  0.15085311    -0.10700
C819        C  0.52481810  0.49056115  0.47001466    -0.09150
C820        C  0.51119956  0.47591671  0.46907599    -0.10700
C821        C  0.40409505  0.49859935  0.10349420    -0.09150
C822        C  0.40281071  0.51485207  0.12903458    -0.10700
C823        C  0.40326984  0.51884712  0.36397027    -0.09150
C824        C  0.40606082  0.50171240  0.38496906    -0.10700
C825        C  0.86270217  0.37086097  0.30470701    -0.09150
C826        C  0.87487020  0.38269602  0.28186880    -0.10700
C827        C  0.62509963  0.37508381  0.15907000    -0.09150
C828        C  0.61251453  0.38743393  0.18027822    -0.10700
C829        C  0.73253457  0.35651494  0.99636337    -0.09150
C830        C  0.74939794  0.35461177  0.47251308    -0.10700
C831        C  0.73026677  0.34789343  0.24723819    -0.09150
C832        C  0.74731717  0.34502414  0.26871194    -0.10700
C833        C  0.84824365  0.25187698  0.01226369    -0.09150
C834        C  0.84891790  0.26959180  0.49156716    -0.10700
C835        C  0.84828185  0.23995833  0.24215793    -0.09150
C836        C  0.84749728  0.25760755  0.26315940    -0.10700
C837        C  0.75986842  0.28338204  0.12923618    -0.09150
C838        C  0.77314090  0.26834459  0.12912157    -0.10700
C839        C  0.75920772  0.22713329  0.38007500    -0.09150
C840        C  0.77243042  0.24215058  0.37993426    -0.10700
C841        C  0.65457990  0.25770579  0.46326135    -0.09150
C842        C  0.65419386  0.27378241  0.98865366    -0.10700
C843        C  0.65507703  0.25218119  0.21247078    -0.09150
C844        C  0.65442579  0.23621883  0.23791905    -0.10700
C845        C  0.74819062  0.16447223  0.01672097    -0.09150
C846        C  0.73104644  0.16182508  0.49535494    -0.10700
C847        C  0.73212534  0.15434746  0.24464242    -0.09150
C848        C  0.74887836  0.15641307  0.22067048    -0.10700
C849        C  0.13351191  0.87491024  0.42169756    -0.09150
C850        C  0.12082668  0.88728904  0.44236224    -0.10700
C851        C  0.09272313  0.99585760  0.37112456    -0.09150
C852        C  0.09154004  0.01239910  0.34767900    -0.10700
C853        C  0.09557891  0.99181048  0.11388167    -0.09150
C854        C  0.09500785  0.00857525  0.13813165    -0.10700
C855        C  0.87640272  0.12431256  0.04261122    -0.09150
C856        C  0.86454519  0.13648119  0.06558583    -0.10700
C857        C  0.99514575  0.10480130  0.09078334    -0.09150
C858        C  0.01195621  0.10607775  0.11428522    -0.10700
C859        C  0.00184214  0.10996753  0.34898971    -0.09150
C860        C  0.98426052  0.11008160  0.37067422    -0.10700
C861        C  0.00253766  0.99513836  0.46105396    -0.09150
C862        C  0.98884608  0.00962412  0.46080177    -0.10700
C863        C  0.88030100  0.88587844  0.18580897    -0.09150
C864        C  0.86817960  0.87369667  0.16366662    -0.10700
C865        C  0.00348375  0.91190133  0.15035269    -0.09150
C866        C  0.02008733  0.91051416  0.12602289    -0.10700
C867        C  0.00333234  0.90340682  0.38017726    -0.09150
C868        C  0.98674343  0.90399359  0.35621672    -0.10700
C869        C  0.97351866  0.01508135  0.24799699    -0.09150
C870        C  0.98703162  0.02979057  0.24833920    -0.10700
C871        C  0.89187903  0.01314870  0.37706729    -0.09150
C872        C  0.89239327  0.99541494  0.35560771    -0.10700
C873        C  0.90257534  0.99384517  0.12188980    -0.09150
C874        C  0.90299151  0.01082096  0.09937181    -0.10700
C875        C  0.37697217  0.88810606  0.04063008    -0.09150
C876        C  0.36505175  0.87546845  0.06237089    -0.10700
C877        C  0.40612086  0.99713807  0.37887114    -0.09150
C878        C  0.40589877  0.01363780  0.35414053    -0.10700
C879        C  0.40398309  0.99788764  0.10271422    -0.09150
C880        C  0.40354442  0.01402159  0.12730368    -0.10700
C881        C  0.61424812  0.12133808  0.42944386    -0.09150
C882        C  0.62629141  0.13411010  0.40829620    -0.10700
C883        C  0.50923596  0.10967999  0.10665097    -0.09150
C884        C  0.49191372  0.11042781  0.12878948    -0.10700
C885        C  0.49082327  0.09404962  0.40339894    -0.09150
C886        C  0.47501942  0.09658889  0.37769124    -0.10700
C887        C  0.51984763  0.99578087  0.53516999    -0.09150
C888        C  0.50703171  0.98045002  0.53250961    -0.10700
C889        C  0.61539257  0.88525316  0.29234723    -0.09150
C890        C  0.62767120  0.87293605  0.31398747    -0.10700
C891        C  0.49116011  0.91426147  0.32907451    -0.09150
C892        C  0.47524426  0.91213558  0.35488093    -0.10700
C893        C  0.50879618  0.89955439  0.12442091    -0.09150
C894        C  0.49136061  0.89918612  0.10290232    -0.10700
C895        C  0.51808810  0.01201584  0.19539379    -0.09150
C896        C  0.50523917  0.02739385  0.19801068    -0.10700
C897        C  0.60361807  0.01364686  0.10579694    -0.09150
C898        C  0.60355095  0.99538387  0.12533596    -0.10700
C899        C  0.58932011  0.99554276  0.35350008    -0.09150
C900        C  0.58926966  0.01187362  0.37772909    -0.10700
C901        C  0.12763801  0.37574290  0.07945308    -0.09150
C902        C  0.11547584  0.38795140  0.05728214    -0.10700
C903        C  0.36393857  0.37567363  0.42250337    -0.09150
C904        C  0.37614093  0.38879311  0.44244605    -0.10700
C905        C  0.23990850  0.34899420  0.23129136    -0.09150
C906        C  0.25642899  0.34973808  0.25607848    -0.10700
C907        C  0.24073379  0.34452975  0.01074996    -0.09150
C908        C  0.25758196  0.34720434  0.48849095    -0.10700
C909        C  0.12835848  0.13807579  0.31358795    -0.09150
C910        C  0.11621714  0.12616773  0.29060771    -0.10700
C911        C  0.15147360  0.27846158  0.25800761    -0.09150
C912        C  0.15410735  0.26185673  0.28150072    -0.10700
C913        C  0.14084077  0.24322688  0.48817963    -0.09150
C914        C  0.14135764  0.26117857  0.00827802    -0.10700
C915        C  0.24148932  0.24879056  0.42418809    -0.09150
C916        C  0.25624501  0.26216205  0.42179449    -0.10700
C917        C  0.36390807  0.13664577  0.17387574    -0.09150
C918        C  0.37620589  0.12389506  0.19466700    -0.10700
C919        C  0.33744722  0.27886790  0.23110412    -0.09150
C920        C  0.33537516  0.26297602  0.20556297    -0.10700
C921        C  0.34662673  0.25235076  0.46967077    -0.09150
C922        C  0.34489465  0.23565804  0.99318141    -0.10700
C923        C  0.21691299  0.23960838  0.11518685    -0.09150
C924        C  0.23164890  0.22600049  0.11632802    -0.10700
C925        C  0.26046475  0.15215184  0.99921515    -0.09150
C926        C  0.24283275  0.15254445  0.47724726    -0.10700
C927        C  0.26000253  0.16398302  0.24389831    -0.09150
C928        C  0.24265260  0.16579022  0.26499340    -0.10700
Zn929      Zn  0.31851359  0.19252708  0.67949254     1.49720
Zn930      Zn  0.27999420  0.17576362  0.62686116     1.49360
Zn931      Zn  0.30245644  0.22277604  0.60347887     1.49110
Zn932      Zn  0.32359466  0.17589082  0.57199730     1.49480
O933        O  0.30784613  0.19221993  0.61862226    -1.80000
O934        O  0.29187656  0.18425952  0.72018798    -0.70630
O935        O  0.25575315  0.19753643  0.63752005    -0.70450
O936        O  0.31548189  0.24529515  0.64744034    -0.69970
O937        O  0.28005851  0.15543879  0.67899464    -0.70650
O938        O  0.33169131  0.22329409  0.69854534    -0.70240
O939        O  0.26942537  0.22697491  0.59894799    -0.70830
O940        O  0.34087747  0.20067018  0.53381101    -0.70220
O941        O  0.26819787  0.16056939  0.57333794    -0.70980
O942        O  0.31780354  0.23007961  0.54707380    -0.70370
O943        O  0.29805551  0.16154735  0.52786817    -0.70830
O944        O  0.34430944  0.15388928  0.61189686    -0.70740
O945        O  0.34102137  0.16788983  0.68238309    -0.70530
C946        C  0.27888313  0.16723573  0.71449258     0.81260
C947        C  0.25325048  0.21621222  0.61746782     0.81750
C948        C  0.32759261  0.24288039  0.68235621     0.80710
C949        C  0.33428838  0.22109475  0.52603996     0.81090
C950        C  0.27678857  0.15759562  0.53485727     0.82220
C951        C  0.34910449  0.15358636  0.65446862     0.81270
Zn952      Zn  0.19134937  0.20044287  0.94035397     1.49720
Zn953      Zn  0.20067610  0.21235792  0.83555327     1.49360
Zn954      Zn  0.19233952  0.16222411  0.86919116     1.49110
Zn955      Zn  0.15189392  0.20250175  0.86859842     1.49480
O956        O  0.18371097  0.19410907  0.87781558    -1.80000
O957        O  0.21178473  0.22578549  0.94143385    -0.70630
O958        O  0.21917533  0.19403266  0.79269463    -0.70450
O959        O  0.21430809  0.15014907  0.91958363    -0.69970
O960        O  0.22312247  0.22875533  0.87020054    -0.70650
O961        O  0.21262232  0.17809874  0.96952810    -0.70240
O962        O  0.21432328  0.15896693  0.81795626    -0.70830
O963        O  0.13660218  0.17355484  0.84527651    -0.70220
O964        O  0.18267908  0.23704343  0.80509589    -0.70980
O965        O  0.16317740  0.14597723  0.84888816    -0.70370
O966        O  0.14726396  0.22848922  0.82352621    -0.70830
O967        O  0.13988452  0.21933918  0.92444421    -0.70740
O968        O  0.16615849  0.21355965  0.97703036    -0.70530
C969        C  0.22462144  0.23368900  0.91151328     0.81260
C970        C  0.22401290  0.17307406  0.79222460     0.81750
C971        C  0.22183111  0.15999297  0.95501097     0.80710
C972        C  0.14329146  0.15313196  0.83809353     0.81090
C973        C  0.16155497  0.24141587  0.80421164     0.82220
C974        C  0.14843158  0.22359600  0.96297735     0.81270
Zn975      Zn  0.28084130  0.32405086  0.87775103     1.49720
Zn976      Zn  0.32244937  0.33504024  0.82499128     1.49360
Zn977      Zn  0.31978545  0.31947357  0.93522647     1.49110
Zn978      Zn  0.31682640  0.28517734  0.86452333     1.49480
O979        O  0.31179867  0.31637089  0.87303030    -1.80000
O980        O  0.26571245  0.33069596  0.82106174    -0.70630
O981        O  0.34376785  0.35724570  0.86282382    -0.70450
O982        O  0.29206039  0.32945164  0.97172855    -0.69970
O983        O  0.29404910  0.34956421  0.78928782    -0.70650
O984        O  0.27518311  0.34953286  0.91900356    -0.70240
O985        O  0.34176913  0.34446751  0.93448700    -0.70830
O986        O  0.34118801  0.27049519  0.90082279    -0.70220
O987        O  0.33683301  0.31240518  0.77717259    -0.70980
O988        O  0.33231011  0.28962750  0.96250736    -0.70370
O989        O  0.32307852  0.27934854  0.80198366    -0.70830
O990        O  0.28952183  0.26988578  0.88564359    -0.70740
O991        O  0.26621062  0.29825428  0.90489961    -0.70530
C992        C  0.27302903  0.34344135  0.79023905     0.81260
C993        C  0.34918235  0.35828200  0.90508431     0.81750
C994        C  0.27641110  0.34298291  0.95932714     0.80710
C995        C  0.34074178  0.27210048  0.94331207     0.81090
C996        C  0.33263687  0.29113011  0.77191325     0.82220
C997        C  0.27164722  0.27754673  0.90411612     0.81270
Zn998      Zn  0.16393482  0.28712641  0.62226442     1.49720
Zn999      Zn  0.21326975  0.31036529  0.62369407     1.49360
Zn1000     Zn  0.17490081  0.32247452  0.55785063     1.49110
Zn1001     Zn  0.17278797  0.33475971  0.66856549     1.49480
O1002       O  0.18140080  0.31491782  0.61937829    -1.80000
O1003       O  0.18493728  0.26181608  0.61438298    -0.70630
O1004       O  0.22959540  0.32548494  0.57432334    -0.70450
O1005       O  0.16288768  0.29438331  0.52262037    -0.69970
O1006       O  0.21905860  0.27793036  0.62100972    -0.70650
O1007       O  0.14029803  0.28144263  0.57588318    -0.70240
O1008       O  0.20257782  0.33589489  0.52663948    -0.70830
O1009       O  0.14977310  0.35714099  0.63606978    -0.69580
O1010       O  0.22748424  0.32320571  0.67818245    -0.70980
O1011       O  0.15176049  0.34644186  0.56314346    -0.70370
O1012       O  0.20240449  0.34963787  0.69797943    -0.70830
O1013       O  0.16019508  0.31300666  0.71940222    -0.70740
O1014       O  0.15201468  0.28138803  0.68169601    -0.70530
C1015       C  0.20632989  0.26076869  0.61658401     0.81260
C1016       C  0.22331812  0.33525006  0.53863479     0.81750
C1017       C  0.14772876  0.28041575  0.53592770     0.80710
C1018       C  0.14374440  0.35895355  0.59437587     0.81090
C1019       C  0.22227573  0.34059464  0.70108217     0.82220
C1020       C  0.15371784  0.29222216  0.71817466     0.81270
Zn1021     Zn  0.59188302  0.94987225  0.74044776     1.49720
Zn1022     Zn  0.54240365  0.95909414  0.77594713     1.49360
Zn1023     Zn  0.55336429  0.95140828  0.67069303     1.49110
Zn1024     Zn  0.55085760  0.91055887  0.74098227     1.49480
O1025       O  0.55990227  0.94220873  0.73211381    -1.80000
O1026       O  0.59574724  0.97116046  0.79282620    -0.70630
O1027       O  0.53058712  0.98582438  0.74569047    -0.70450
O1028       O  0.57933983  0.96402897  0.63378400    -0.69970
O1029       O  0.56143048  0.97250047  0.82413393    -0.70650
O1030       O  0.60370340  0.97080336  0.68893036    -0.70240
O1031       O  0.53522562  0.97902055  0.67255675    -0.70830
O1032       O  0.53506830  0.89803155  0.68441644    -0.70220
O1033       O  0.51567052  0.94230675  0.80224858    -0.70980
O1034       O  0.53364947  0.92864909  0.64061405    -0.70370
O1035       O  0.52458112  0.90665091  0.78663970    -0.70830
O1036       O  0.57954820  0.89463377  0.76368349    -0.70740
O1037       O  0.60775998  0.92032894  0.75854088    -0.70530
C1038       C  0.58214916  0.97835928  0.82284765     0.81260
C1039       C  0.52871843  0.99138663  0.70480681     0.81750
C1040       C  0.59600558  0.97516099  0.64970987     0.80710
C1041       C  0.52737286  0.90864586  0.65025845     0.81090
C1042       C  0.51138593  0.92126201  0.80469156     0.82220
C1043       C  0.60026554  0.90067765  0.76948078     0.81270
Zn1044     Zn  0.54272649  0.04928209  0.95443840     1.49720
Zn1045     Zn  0.59188502  0.05817677  0.98951193     1.49360
Zn1046     Zn  0.55091697  0.09773348  0.98934637     1.49110
Zn1047     Zn  0.55331948  0.05713723  0.55972151     1.49480
O1048       O  0.55998643  0.06614145  0.99833643    -1.80000
O1049       O  0.56179264  0.03625558  0.90537882    -0.70630
O1050       O  0.60743243  0.08713170  0.96728329    -0.70450
O1051       O  0.52415798  0.10147890  0.94539525    -0.69970
O1052       O  0.59546920  0.03590112  0.93880757    -0.70650
O1053       O  0.51559224  0.06587293  0.92907436    -0.70240
O1054       O  0.57915643  0.11288727  0.96274157    -0.70830
O1055       O  0.53336871  0.07998047  0.58946556    -0.70220
O1056       O  0.60399211  0.03800675  0.54185885    -0.70980
O1057       O  0.53585627  0.11088783  0.54663885    -0.70370
O1058       O  0.57932374  0.04494922  0.59680485    -0.70830
O1059       O  0.53573864  0.02927206  0.55798943    -0.70740
O1060       O  0.53171537  0.02225021  0.98481718    -0.70530
C1061       C  0.58217932  0.02935617  0.90794501     0.81260
C1062       C  0.59966986  0.10651005  0.95512223     0.81750
C1063       C  0.51108228  0.08691180  0.92728038     0.80710
C1064       C  0.52764738  0.10023249  0.58039707     0.81090
C1065       C  0.59614336  0.03381286  0.58113677     0.82220
C1066       C  0.52986028  0.01667458  0.02572879     0.81270
Zn1067     Zn  0.46654672  0.92542820  0.99252896     1.49720
Zn1068     Zn  0.43952871  0.97196860  0.99160812     1.49360
Zn1069     Zn  0.41823736  0.93094358  0.94639814     1.49110
Zn1070     Zn  0.43078869  0.93398722  0.55670387     1.49480
O1071       O  0.43755899  0.94019900  0.49491912    -1.80000
O1072       O  0.48920325  0.94739976  0.01250378    -0.70630
O1073       O  0.43154161  0.98484343  0.93270209    -0.70450
O1074       O  0.44048992  0.91753934  0.89628710    -0.69970
O1075       O  0.47016437  0.98012499  0.01002889    -0.70650
O1076       O  0.47407885  0.91732392  0.93102991    -0.70240
O1077       O  0.40406332  0.96054677  0.91537040    -0.70830
O1078       O  0.40667817  0.91168410  0.55383250    -0.70220
O1079       O  0.41873834  0.98690884  0.53440509    -0.70980
O1080       O  0.39544423  0.90890838  0.98147866    -0.70370
O1081       O  0.41778419  0.96135542  0.58897197    -0.70830
O1082       O  0.45858285  0.92112458  0.59003739    -0.70740
O1083       O  0.47161156  0.89969002  0.53467544    -0.70530
C1084       C  0.48785658  0.96858641  0.01821868     0.81260
C1085       C  0.41396025  0.97985507  0.91027070     0.81750
C1086       C  0.46224935  0.91509619  0.89585945     0.80710
C1087       C  0.39378023  0.90360557  0.52368273     0.81090
C1088       C  0.41314137  0.98093071  0.57370278     0.82220
C1089       C  0.47240169  0.90608901  0.57541334     0.81270
Zn1090     Zn  0.46668128  0.08380533  0.73978727     1.49720
Zn1091     Zn  0.41787368  0.07978192  0.78627791     1.49360
Zn1092     Zn  0.43015008  0.07750462  0.67563149     1.49110
Zn1093     Zn  0.43802188  0.03855758  0.73927413     1.49480
O1094       O  0.43705110  0.07046923  0.73700275    -1.80000
O1095       O  0.47406588  0.09129675  0.80158598    -0.70630
O1096       O  0.39501124  0.10235891  0.75242367    -0.70450
O1097       O  0.45816340  0.09007271  0.64211696    -0.69970
O1098       O  0.44030975  0.09261543  0.83613065    -0.70650
O1099       O  0.47306370  0.10954924  0.69825245    -0.70240
O1100       O  0.40594458  0.10013739  0.67967771    -0.70830
O1101       O  0.41665995  0.02460898  0.69684034    -0.70220
O1102       O  0.40365142  0.05030510  0.81788012    -0.70980
O1103       O  0.41732805  0.05033900  0.64254416    -0.70370
O1104       O  0.43036209  0.02548347  0.79810634    -0.70830
O1105       O  0.46819055  0.02917902  0.71967600    -0.70740
O1106       O  0.48862104  0.06097299  0.71944505    -0.70530
C1107       C  0.46214346  0.09408405  0.83666592     0.81260
C1108       C  0.39316489  0.10808532  0.71046908     0.81750
C1109       C  0.47296835  0.10397010  0.65700508     0.80710
C1110       C  0.41202600  0.03081805  0.65725798     0.81090
C1111       C  0.41331681  0.03079273  0.82205364     0.82220
C1112       C  0.48642108  0.03995989  0.71241772     0.81270
Zn1113     Zn  0.90276425  0.95048383  0.73869872     1.49720
Zn1114     Zn  0.94814859  0.95588730  0.68986539     1.49360
Zn1115     Zn  0.94524271  0.95555264  0.79797326     1.49110
Zn1116     Zn  0.94410257  0.91078860  0.73996519     1.49480
O1117       O  0.93475613  0.94248095  0.74293658    -1.80000
O1118       O  0.89839504  0.97321168  0.68843424    -0.70630
O1119       O  0.95835094  0.98574825  0.70830073    -0.70450
O1120       O  0.92134146  0.96987421  0.83750069    -0.69970
O1121       O  0.92603136  0.96361638  0.64132443    -0.70650
O1122       O  0.89087259  0.96944120  0.79360309    -0.70240
O1123       O  0.96207124  0.98271087  0.78268657    -0.70830
O1124       O  0.95864106  0.90038114  0.79949587    -0.70220
O1125       O  0.97572610  0.93921088  0.66625197    -0.70980
O1126       O  0.96585718  0.93425414  0.82982587    -0.70370
O1127       O  0.97129265  0.90536460  0.69693730    -0.70830
O1128       O  0.91563560  0.89482636  0.71686188    -0.70740
O1129       O  0.88757102  0.92101525  0.71916476    -0.70530
C1130       C  0.90864327  0.97546826  0.65105176     0.81260
C1131       C  0.96375542  0.99364511  0.74634186     0.81750
C1132       C  0.90135557  0.97665593  0.82850052     0.80710
C1133       C  0.96914510  0.91297838  0.82770431     0.81090
C1134       C  0.98250460  0.91898974  0.67222946     0.82220
C1135       C  0.89512172  0.90117376  0.70937607     0.81270
Zn1136     Zn  0.90124216  0.05999442  0.49130138     1.49720
Zn1137     Zn  0.94953108  0.05521591  0.53531686     1.49360
Zn1138     Zn  0.94206217  0.05891879  0.92594454     1.49110
Zn1139     Zn  0.94126519  0.10160073  0.48938742     1.49480
O1140       O  0.93325922  0.06924083  0.98553944    -1.80000
O1141       O  0.89693064  0.03707396  0.54146084    -0.70630
O1142       O  0.96928095  0.03270940  0.50831795    -0.70450
O1143       O  0.91929692  0.04055652  0.89171450    -0.69970
O1144       O  0.93018932  0.03668192  0.57631777    -0.70650
O1145       O  0.88946003  0.04013413  0.93746449    -0.70240
O1146       O  0.96458245  0.03603286  0.93425348    -0.70830
O1147       O  0.95822139  0.11280720  0.93206106    -0.70220
O1148       O  0.97080542  0.07551159  0.56968403    -0.70980
O1149       O  0.95937198  0.08147255  0.89028284    -0.70370
O1150       O  0.96582924  0.10869544  0.53672448    -0.70830
O1151       O  0.91171158  0.11653426  0.50998249    -0.70740
O1152       O  0.88500091  0.08904756  0.51068995    -0.70530
C1153       C  0.91002037  0.02950880  0.57181595     0.81260
C1154       C  0.97349831  0.02700151  0.96812445     0.81750
C1155       C  0.89994474  0.03280101  0.90249960     0.80710
C1156       C  0.96570336  0.10163122  0.89811324     0.81090
C1157       C  0.97610814  0.09620704  0.56496304     0.82220
C1158       C  0.89161803  0.10936550  0.51880670     0.81270
Zn1159     Zn  0.03040981  0.93256489  0.99394847     1.49720
Zn1160     Zn  0.07892202  0.92812707  0.53871026     1.49360
Zn1161     Zn  0.06677329  0.93341060  0.92639818     1.49110
Zn1162     Zn  0.06763328  0.97231814  0.98941712     1.49480
O1163       O  0.06168784  0.94063058  0.98910262    -1.80000
O1164       O  0.02244466  0.92390663  0.55443678    -0.70630
O1165       O  0.10141369  0.90669304  0.50196014    -0.70450
O1166       O  0.03895670  0.92007752  0.89410406    -0.69970
O1167       O  0.05536381  0.91332922  0.58475955    -0.70650
O1168       O  0.01805789  0.90923121  0.95194111    -0.70240
O1169       O  0.09151511  0.91147860  0.92908303    -0.70830
O1170       O  0.08985608  0.98292362  0.94421228    -0.70220
O1171       O  0.09389877  0.95488971  0.57791373    -0.70980
O1172       O  0.07711080  0.96067151  0.88991546    -0.70370
O1173       O  0.07704087  0.98473669  0.54734291    -0.70830
O1174       O  0.03948222  0.98675949  0.97346557    -0.70740
O1175       O  0.01336319  0.95946956  0.97931587    -0.70530
C1176       C  0.03361522  0.91566337  0.58666851     0.81260
C1177       C  0.10379344  0.90253452  0.95933786     0.81750
C1178       C  0.02138092  0.91032916  0.90992041     0.80710
C1179       C  0.08720132  0.97856782  0.90289612     0.81090
C1180       C  0.08894723  0.97616286  0.57818847     0.82220
C1181       C  0.01931826  0.97958132  0.97102241     0.81270
Zn1182     Zn  0.05097375  0.10289776  0.73879578     1.49720
Zn1183     Zn  0.09067681  0.06178095  0.74092204     1.49360
Zn1184     Zn  0.04521076  0.06190687  0.79771195     1.49110
Zn1185     Zn  0.04578504  0.05624990  0.68951624     1.49480
O1186       O  0.05874494  0.07089894  0.74067618    -1.80000
O1187       O  0.08053809  0.11824749  0.75922250    -0.70630
O1188       O  0.09633177  0.03916482  0.79058951    -0.70450
O1189       O  0.03383396  0.08668203  0.83896834    -0.69970
O1190       O  0.10748639  0.09091832  0.75828097    -0.70650
O1191       O  0.02530648  0.11029993  0.78409027    -0.70240
O1192       O  0.06398150  0.03882290  0.82935212    -0.70830
O1193       O  0.01759855  0.04245429  0.70894906    -0.70220
O1194       O  0.10019516  0.04121703  0.68590121    -0.70980
O1195       O  0.01662286  0.04725988  0.78332143    -0.70370
O1196       O  0.06552264  0.03171540  0.66332468    -0.70830
O1197       O  0.03430688  0.07774260  0.64379210    -0.70740
O1198       O  0.03557909  0.11132510  0.67831915    -0.70530
C1199       C  0.10081379  0.11120400  0.76708277     0.81260
C1200       C  0.08385778  0.03130128  0.82175725     0.81750
C1201       C  0.02167318  0.10265195  0.82345817     0.80710
C1202       C  0.00785273  0.04085676  0.74673163     0.81090
C1203       C  0.08683712  0.02825078  0.66348596     0.82220
C1204       C  0.02894696  0.09856178  0.64601209     0.81270
Zn1205     Zn  0.66960636  0.17615412  0.81826192     1.49720
Zn1206     Zn  0.71296123  0.17387926  0.87546826     1.49360
Zn1207     Zn  0.68935702  0.22166696  0.85757371     1.49110
Zn1208     Zn  0.67239376  0.18855462  0.92785593     1.49480
O1209       O  0.68477279  0.19046065  0.86822875    -1.80000
O1210       O  0.69500455  0.16261907  0.77472545    -0.70630
O1211       O  0.73692087  0.19562970  0.88807557    -0.70450
O1212       O  0.67699576  0.23031854  0.79914229    -0.69970
O1213       O  0.72468571  0.15972490  0.82015622    -0.70650
O1214       O  0.65444931  0.20157221  0.77954018    -0.70240
O1215       O  0.72198322  0.22740154  0.86014422    -0.70830
O1216       O  0.65841219  0.21834041  0.95077984    -0.70220
O1217       O  0.71359842  0.15319448  0.92751654    -0.70980
O1218       O  0.67418463  0.24218691  0.90245362    -0.70370
O1219       O  0.69814616  0.17986638  0.97009808    -0.70830
O1220       O  0.64990462  0.16387556  0.92422461    -0.70740
O1221       O  0.64737156  0.15347316  0.85128174    -0.70530
C1222       C  0.71610650  0.15819590  0.78136811     0.81260
C1223       C  0.73843843  0.21603389  0.87586714     0.81750
C1224       C  0.66194505  0.22178819  0.77388541     0.80710
C1225       C  0.66214469  0.23845376  0.93709617     0.81090
C1226       C  0.71272850  0.16414800  0.96419697     0.82220
C1227       C  0.64186800  0.15131986  0.89320697     0.81270
Zn1228     Zn  0.84236923  0.20141295  0.61861278     1.49720
Zn1229     Zn  0.80082312  0.16278415  0.61675901     1.49360
Zn1230     Zn  0.79756907  0.20580101  0.67453227     1.49110
Zn1231     Zn  0.79914910  0.20987847  0.56624442     1.49480
O1232       O  0.81019643  0.19441613  0.61942881    -1.80000
O1233       O  0.85731327  0.17196177  0.59776909    -0.70630
O1234       O  0.78103610  0.15227729  0.67147356    -0.70450
O1235       O  0.82081060  0.21431456  0.72001895    -0.69970
O1236       O  0.82943234  0.14572176  0.59774381    -0.70650
O1237       O  0.85191328  0.21700634  0.67738708    -0.70240
O1238       O  0.77245094  0.18625124  0.69922033    -0.70830
O1239       O  0.78631592  0.23852324  0.58733008    -0.70220
O1240       O  0.77744065  0.15842974  0.56811850    -0.70980
O1241       O  0.78498628  0.23554800  0.66199680    -0.70370
O1242       O  0.77436962  0.19228737  0.53603076    -0.70830
O1243       O  0.82277697  0.22181567  0.52292859    -0.70740
O1244       O  0.84965591  0.22672659  0.57376693    -0.70530
C1245       C  0.84986081  0.15198453  0.58930216     0.81260
C1246       C  0.76853401  0.16511904  0.69616167     0.81750
C1247       C  0.84068250  0.22193532  0.71293735     0.80710
C1248       C  0.78234225  0.24657711  0.62605792     0.81090
C1249       C  0.76783033  0.17191917  0.54093670     0.82220
C1250       C  0.84043541  0.23209450  0.53667756     0.81270
Zn1251     Zn  0.67219180  0.32137918  0.67794358     1.49720
Zn1252     Zn  0.68987820  0.28848043  0.60753174     1.49360
Zn1253     Zn  0.66983544  0.33409224  0.56878226     1.49110
Zn1254     Zn  0.71304236  0.33639323  0.62643101     1.49480
O1255       O  0.68498227  0.31970354  0.61857474    -1.80000
O1256       O  0.65841138  0.29153160  0.70012665    -0.70630
O1257       O  0.67715573  0.27973763  0.54933850    -0.70450
O1258       O  0.64708873  0.35644982  0.60198985    -0.69970
O1259       O  0.67507824  0.26777549  0.65238966    -0.70650
O1260       O  0.64934966  0.34576374  0.67463056    -0.70240
O1261       O  0.65476852  0.30865379  0.52988092    -0.70830
O1262       O  0.72477853  0.35094509  0.57168241    -0.70220
O1263       O  0.72262406  0.28298886  0.60928389    -0.70980
O1264       O  0.69533902  0.34781567  0.52568782    -0.70370
O1265       O  0.73723071  0.31470595  0.63835886    -0.70830
O1266       O  0.71330550  0.35679135  0.67921357    -0.70740
O1267       O  0.69755717  0.33009949  0.72084224    -0.70530
C1268       C  0.66264637  0.27143341  0.68660833     0.81260
C1269       C  0.66205908  0.28831746  0.52429230     0.81750
C1270       C  0.64124651  0.35831281  0.64382742     0.80710
C1271       C  0.71636474  0.35244403  0.53275668     0.81090
C1272       C  0.73897829  0.29438835  0.62534667     0.82220
C1273       C  0.71216304  0.34576829  0.71562363     0.81270
Zn1274     Zn  0.80058160  0.34714898  0.86713170     1.49720
Zn1275     Zn  0.79744209  0.30440643  0.92556984     1.49360
Zn1276     Zn  0.79889394  0.30002944  0.81707071     1.49110
Zn1277     Zn  0.84197852  0.30832003  0.86890082     1.49480
O1278       O  0.80987532  0.31552901  0.87048137    -1.80000
O1279       O  0.78143109  0.35837948  0.92265435    -0.70630
O1280       O  0.78400913  0.27512591  0.91262455    -0.70450
O1281       O  0.77391426  0.31735846  0.78690896    -0.69970
O1282       O  0.77295448  0.32462158  0.95110627    -0.70650
O1283       O  0.77642247  0.35102183  0.82024595    -0.70240
O1284       O  0.78626489  0.27143504  0.83809015    -0.70830
O1285       O  0.84867213  0.28230501  0.82543590    -0.70220
O1286       O  0.82084196  0.29469407  0.96980592    -0.70980
O1287       O  0.82260294  0.28827943  0.77353244    -0.70370
O1288       O  0.85235781  0.29339827  0.92797005    -0.70830
O1289       O  0.85642874  0.33687795  0.84302258    -0.70740
O1290       O  0.82867283  0.36336101  0.84290266    -0.70530
C1291       C  0.76904832  0.34575642  0.94784605     0.81260
C1292       C  0.78174331  0.26380236  0.87679493     0.81750
C1293       C  0.76701402  0.33759113  0.79263903     0.80710
C1294       C  0.83979851  0.27740634  0.78777395     0.81090
C1295       C  0.84101327  0.28772714  0.96291218     0.82220
C1296       C  0.84872136  0.35649995  0.83244334     0.81270
Zn1297     Zn  0.42997823  0.43549410  0.92565203     1.49720
Zn1298     Zn  0.44125814  0.47253442  0.99424314     1.49360
Zn1299     Zn  0.41674394  0.43227526  0.53595563     1.49110
Zn1300     Zn  0.46442493  0.42363535  0.98974679     1.49480
O1301       O  0.43673422  0.44102033  0.98786369    -1.80000
O1302       O  0.41706759  0.46378461  0.89579879    -0.70630
O1303       O  0.43084952  0.48565985  0.55211821    -0.70450
O1304       O  0.39435476  0.41014995  0.50082127    -0.69970
O1305       O  0.42387078  0.48939979  0.94898558    -0.70650
O1306       O  0.40563759  0.41287511  0.92831246    -0.70240
O1307       O  0.40237261  0.46202900  0.56638066    -0.70830
O1308       O  0.47099994  0.41358752  0.54996344    -0.70220
O1309       O  0.47339595  0.47830509  0.98391926    -0.70980
O1310       O  0.43825033  0.41883567  0.58648994    -0.70370
O1311       O  0.48929690  0.44413186  0.97593391    -0.70830
O1312       O  0.46881013  0.39894792  0.94478433    -0.70740
O1313       O  0.45846468  0.42288935  0.89192230    -0.70530
C1314       C  0.41564443  0.48391423  0.91125291     0.81260
C1315       C  0.41252128  0.48111618  0.57268323     0.81750
C1316       C  0.39279174  0.40469761  0.95865951     0.80710
C1317       C  0.45951830  0.41375867  0.58589415     0.81090
C1318       C  0.49028039  0.46548691  0.97605847     0.82220
C1319       C  0.47134451  0.40683863  0.90550879     0.81270
Zn1320     Zn  0.42538105  0.53950506  0.75420753     1.49720
Zn1321     Zn  0.43294593  0.57907683  0.80848180     1.49360
Zn1322     Zn  0.46703929  0.57124111  0.73722387     1.49110
Zn1323     Zn  0.41755743  0.58065938  0.69865659     1.49480
O1324       O  0.43563432  0.56954279  0.74706269    -1.80000
O1325       O  0.39953298  0.53733721  0.79590607    -0.70630
O1326       O  0.46291328  0.59225269  0.83398614    -0.70450
O1327       O  0.48010236  0.54287333  0.75987923    -0.69970
O1328       O  0.42237571  0.55231946  0.84659626    -0.70650
O1329       O  0.44983906  0.52329672  0.78311288    -0.70240
O1330       O  0.48372067  0.59495865  0.77202483    -0.70830
O1331       O  0.44067122  0.59474794  0.65270698    -0.70220
O1332       O  0.40841083  0.60142147  0.80660788    -0.70980
O1333       O  0.47251666  0.57686487  0.67385606    -0.70370
O1334       O  0.39543916  0.60279305  0.73510617    -0.70830
O1335       O  0.40349001  0.55266953  0.66115577    -0.70740
O1336       O  0.41824475  0.52364306  0.69822108    -0.70530
C1337       C  0.40739462  0.53777809  0.83541731     0.81260
C1338       C  0.48118813  0.59818909  0.81390398     0.81750
C1339       C  0.47100277  0.52652693  0.78091521     0.80710
C1340       C  0.46135859  0.58852270  0.64573918     0.81090
C1341       C  0.39467658  0.60880307  0.77710841     0.82220
C1342       C  0.40793665  0.53133492  0.66434328     0.81270
Zn1343     Zn  0.54824710  0.41021019  0.73861390     1.49720
Zn1344     Zn  0.58834423  0.45024289  0.73999249     1.49360
Zn1345     Zn  0.53745094  0.45937104  0.71043525     1.49110
Zn1346     Zn  0.55083451  0.44858315  0.81300151     1.49480
O1347       O  0.55648593  0.44174119  0.74973378    -1.80000
O1348       O  0.57709060  0.39515993  0.71344206    -0.70630
O1349       O  0.59106862  0.47218515  0.68942013    -0.70450
O1350       O  0.51336616  0.44163722  0.67754429    -0.69970
O1351       O  0.60459766  0.42165218  0.71760147    -0.70650
O1352       O  0.52215947  0.40609763  0.69355547    -0.70240
O1353       O  0.55534166  0.47904875  0.66955628    -0.70830
O1354       O  0.52362540  0.46688145  0.81777086    -0.70220
O1355       O  0.60124949  0.47165904  0.79021796    -0.70980
O1356       O  0.52010965  0.48003714  0.74806428    -0.70370
O1357       O  0.57298265  0.47103121  0.83973777    -0.70830
O1358       O  0.54105944  0.42200858  0.84979961    -0.70740
O1359       O  0.53168572  0.39828046  0.79442769    -0.70530
C1360       C  0.59743262  0.40199109  0.70578419     0.81260
C1361       C  0.57648786  0.48287941  0.66649835     0.81750
C1362       C  0.50921654  0.42057222  0.67493086     0.80710
C1363       C  0.51489366  0.48001670  0.78938799     0.81090
C1364       C  0.59135332  0.47970268  0.82524280     0.82220
C1365       C  0.52916065  0.40573420  0.83449472     0.81270
Zn1366     Zn  0.57485401  0.53707790  0.99540829     1.49720
Zn1367     Zn  0.52852984  0.56117502  0.97264020     1.49360
Zn1368     Zn  0.55877885  0.57583156  0.54912436     1.49110
Zn1369     Zn  0.57622165  0.58114679  0.94239446     1.49480
O1370       O  0.55925572  0.56544483  0.98815250    -1.80000
O1371       O  0.55224214  0.51330243  0.00033887    -0.70630
O1372       O  0.50601966  0.57229405  0.51901420    -0.70450
O1373       O  0.56620800  0.54946471  0.59010417    -0.69970
O1374       O  0.52437442  0.52884374  0.95993396    -0.70650
O1375       O  0.59412771  0.53520948  0.54896375    -0.70240
O1376       O  0.52841479  0.58943978  0.56839374    -0.70830
O1377       O  0.59820341  0.60113514  0.98327993    -0.70220
O1378       O  0.52147120  0.57882574  0.91949486    -0.70980
O1379       O  0.58358266  0.59769854  0.55320706    -0.70370
O1380       O  0.55234638  0.59922658  0.90355692    -0.70830
O1381       O  0.59060927  0.55577038  0.89798646    -0.70740
O1382       O  0.59123507  0.52589727  0.94280359    -0.70530
C1383       C  0.53453119  0.51184856  0.97655440     0.81260
C1384       C  0.50868862  0.58467704  0.55361828     0.81750
C1385       C  0.58261952  0.53561379  0.58488435     0.80710
C1386       C  0.59818744  0.60566130  0.52599141     0.81090
C1387       C  0.53135835  0.59414424  0.89717396     0.82220
C1388       C  0.59449298  0.53454944  0.90465534     0.81270
Zn1389     Zn  0.69280117  0.84953708  0.86472976     1.49720
Zn1390     Zn  0.65275914  0.80855899  0.86614496     1.49360
Zn1391     Zn  0.69862959  0.80352678  0.81728825     1.49110
Zn1392     Zn  0.69722681  0.80750770  0.92525337     1.49480
O1393       O  0.68465673  0.81762883  0.86936860    -1.80000
O1394       O  0.66313617  0.86510172  0.84609133    -0.70630
O1395       O  0.64735070  0.78169244  0.82237101    -0.70450
O1396       O  0.70731222  0.82503486  0.76844078    -0.69970
O1397       O  0.63676308  0.83733493  0.84387811    -0.70650
O1398       O  0.71545045  0.85375937  0.81378804    -0.70240
O1399       O  0.68168365  0.77630151  0.79351290    -0.70830
O1400       O  0.72452454  0.79042659  0.91147069    -0.70220
O1401       O  0.64213044  0.79355843  0.92542203    -0.70980
O1402       O  0.72815809  0.79272086  0.83695725    -0.70370
O1403       O  0.67584315  0.78703056  0.95698381    -0.70830
O1404       O  0.71125994  0.83133329  0.96481223    -0.70740
O1405       O  0.71228179  0.86103424  0.91918707    -0.70530
C1406       C  0.64314459  0.85781686  0.83667391     0.81260
C1407       C  0.66116474  0.77009451  0.79843619     0.81750
C1408       C  0.71839470  0.84295719  0.77717605     0.80710
C1409       C  0.73569204  0.78780435  0.87546968     0.81090
C1410       C  0.65462838  0.78337871  0.95419914     0.82220
C1411       C  0.71889944  0.85080592  0.95476815     0.81270
Zn1412     Zn  0.80153051  0.80863873  0.55060233     1.49720
Zn1413     Zn  0.84421253  0.80881444  0.61395233     1.49360
Zn1414     Zn  0.80303264  0.84943024  0.61594663     1.49110
Zn1415     Zn  0.79748429  0.80116867  0.65987862     1.49480
O1416       O  0.81185955  0.81729132  0.61023472    -1.80000
O1417       O  0.82426751  0.79180859  0.51381877    -0.70630
O1418       O  0.85974463  0.83819321  0.63300821    -0.70450
O1419       O  0.78304607  0.86138885  0.56249916    -0.69970
O1420       O  0.85506275  0.79128787  0.55700264    -0.70650
O1421       O  0.78260620  0.83135424  0.51747586    -0.70240
O1422       O  0.83251413  0.86526114  0.63365537    -0.70830
O1423       O  0.77840651  0.82068277  0.69983684    -0.70220
O1424       O  0.85102093  0.78450837  0.66178700    -0.70980
O1425       O  0.78043363  0.85433400  0.66703176    -0.70370
O1426       O  0.81768265  0.78034785  0.69531708    -0.70830
O1427       O  0.77571539  0.78075063  0.63285599    -0.70740
O1428       O  0.77928916  0.78547414  0.55882509    -0.70530
C1429       C  0.84409441  0.78457144  0.52235967     0.81260
C1430       C  0.85286581  0.85844264  0.64120921     0.81750
C1431       C  0.77527687  0.85090292  0.52804444     0.80710
C1432       C  0.77210938  0.84117104  0.69650736     0.81090
C1433       C  0.83835656  0.77467416  0.69046191     0.82220
C1434       C  0.77047369  0.77620447  0.59263214     0.81270
Zn1435     Zn  0.67569516  0.72161839  0.62025452     1.49720
Zn1436     Zn  0.66903990  0.67331758  0.66490842     1.49360
Zn1437     Zn  0.67460388  0.68514179  0.55243941     1.49110
Zn1438     Zn  0.71358197  0.68253469  0.61419276     1.49480
O1439       O  0.68206476  0.69006420  0.61501212    -1.80000
O1440       O  0.66696342  0.72980915  0.68083186    -0.70630
O1441       O  0.64716253  0.65104459  0.62832095    -0.70450
O1442       O  0.66119617  0.71299569  0.52041798    -0.69970
O1443       O  0.65449939  0.69747044  0.71051217    -0.70650
O1444       O  0.65309188  0.73522670  0.57826880    -0.70240
O1445       O  0.65241116  0.66069666  0.55542324    -0.70830
O1446       O  0.72276074  0.65940989  0.56943496    -0.70220
O1447       O  0.69565654  0.65824104  0.70458311    -0.70980
O1448       O  0.70196487  0.67461808  0.51561234    -0.70370
O1449       O  0.72601616  0.67331716  0.67200770    -0.70830
O1450       O  0.72943042  0.70965812  0.59677149    -0.70740
O1451       O  0.70360496  0.73712926  0.60573668    -0.70530
C1452       C  0.65778039  0.71903685  0.71267803     0.81260
C1453       C  0.64310604  0.64865676  0.58566879     0.81750
C1454       C  0.65272084  0.73121975  0.53641224     0.80710
C1455       C  0.71920292  0.66329557  0.52826291     0.81090
C1456       C  0.71714889  0.66238607  0.70395614     0.82220
C1457       C  0.72331077  0.73016924  0.59574817     0.81270
Zn1458     Zn  0.79721929  0.70541979  0.81622478     1.49720
Zn1459     Zn  0.80289846  0.66023533  0.86595139     1.49360
Zn1460     Zn  0.84417391  0.69955170  0.86352410     1.49110
Zn1461     Zn  0.80376169  0.70494065  0.92442112     1.49480
O1462       O  0.81212579  0.69197509  0.86627364    -1.80000
O1463       O  0.77265143  0.68588178  0.78973872    -0.70630
O1464       O  0.83198835  0.64338030  0.88342171    -0.70450
O1465       O  0.85277793  0.71460047  0.80288880    -0.69970
O1466       O  0.78237810  0.65110578  0.81089274    -0.70650
O1467       O  0.81873718  0.71745057  0.77066553    -0.70240
O1468       O  0.85938020  0.67018075  0.88424379    -0.70830
O1469       O  0.82905745  0.71592353  0.96470975    -0.70220
O1470       O  0.78007654  0.65458902  0.91553584    -0.70980
O1471       O  0.85170468  0.72515278  0.90838072    -0.70370
O1472       O  0.78068965  0.68617215  0.95644278    -0.70830
O1473       O  0.78903854  0.73365552  0.91174490    -0.70740
O1474       O  0.78337390  0.73325593  0.83762656    -0.70530
C1475       C  0.76927203  0.66461186  0.78921080     0.81260
C1476       C  0.85224669  0.65004952  0.89239078     0.81750
C1477       C  0.83980923  0.72199042  0.77168632     0.80710
C1478       C  0.84459026  0.72841268  0.94836873     0.81090
C1479       C  0.77263599  0.66669648  0.94777548     0.82220
C1480       C  0.78220787  0.74269077  0.87580393     0.81270
Zn1481     Zn  0.92781753  0.42960558  0.80491577     1.49720
Zn1482     Zn  0.92745855  0.47033501  0.74309502     1.49360
Zn1483     Zn  0.96541773  0.43064989  0.73777632     1.49110
Zn1484     Zn  0.91689649  0.42600285  0.69141298     1.49480
O1485       O  0.93373254  0.43837883  0.74300738    -1.80000
O1486       O  0.91629778  0.45592168  0.84355223    -0.70630
O1487       O  0.95593431  0.48553650  0.75054862    -0.70450
O1488       O  0.97970179  0.41033911  0.78292175    -0.69970
O1489       O  0.90807594  0.48171145  0.79213551    -0.70650
O1490       O  0.95550713  0.41637078  0.83866073    -0.70240
O1491       O  0.98213186  0.45833944  0.74379499    -0.70830
O1492       O  0.94060399  0.41197053  0.64486957    -0.70220
O1493       O  0.91539725  0.48265573  0.68736575    -0.70980
O1494       O  0.97330787  0.41978325  0.67878234    -0.70370
O1495       O  0.90162601  0.45252256  0.65231781    -0.70830
O1496       O  0.89444161  0.40350501  0.72470512    -0.70740
O1497       O  0.90359576  0.40710661  0.79824087    -0.70530
C1498       C  0.90841182  0.47520767  0.83255324     0.81260
C1499       C  0.97624125  0.47872718  0.74897056     0.81750
C1500       C  0.97465505  0.40922148  0.82422861     0.80710
C1501       C  0.96242281  0.41298313  0.64492631     0.81090
C1502       C  0.90494492  0.47404160  0.65458872     0.82220
C1503       C  0.89179437  0.39847014  0.76676120     0.81270
Zn1504     Zn  0.90411769  0.55956797  0.99333739     1.49720
Zn1505     Zn  0.94967742  0.55904301  0.93748715     1.49360
Zn1506     Zn  0.94363534  0.60073047  0.99451624     1.49110
Zn1507     Zn  0.94872966  0.55501868  0.54614428     1.49480
O1508       O  0.93595192  0.56876657  0.99397276    -1.80000
O1509       O  0.89875398  0.53622713  0.94470655    -0.70630
O1510       O  0.96046908  0.58333301  0.89482303    -0.70450
O1511       O  0.91417409  0.61574427  0.97335199    -0.69970
O1512       O  0.93147753  0.53489615  0.90730914    -0.70650
O1513       O  0.88733585  0.58839616  0.97440998    -0.70240
O1514       O  0.96903629  0.60764257  0.94875984    -0.70830
O1515       O  0.95988739  0.57730554  0.59148124    -0.70220
O1516       O  0.97861784  0.54546971  0.95309037    -0.70980
O1517       O  0.95916037  0.61005229  0.55430264    -0.70370
O1518       O  0.97729136  0.54148545  0.52760088    -0.70830
O1519       O  0.92904910  0.53033731  0.57206391    -0.70740
O1520       O  0.89443649  0.53954970  0.54852550    -0.70530
C1521       C  0.91153370  0.52758916  0.91472107     0.81260
C1522       C  0.97251663  0.59959338  0.90955873     0.81750
C1523       C  0.89402214  0.60855736  0.96510204     0.80710
C1524       C  0.96559890  0.59796970  0.58761794     0.81090
C1525       C  0.98733512  0.53975272  0.99011687     0.82220
C1526       C  0.90775742  0.52670204  0.57120894     0.81270
Zn1527     Zn  0.05017850  0.45534555  0.93710510     1.49720
Zn1528     Zn  0.09339724  0.45058235  0.99452637     1.49360
Zn1529     Zn  0.04861601  0.45551831  0.54544182     1.49110
Zn1530     Zn  0.05271204  0.41064922  0.49388956     1.49480
O1531       O  0.06150949  0.44238536  0.99122439    -1.80000
O1532       O  0.07347526  0.46973494  0.89673440    -0.70630
O1533       O  0.09763001  0.47413062  0.54326032    -0.70450
O1534       O  0.03787532  0.48530703  0.52801335    -0.69970
O1535       O  0.10478014  0.46902749  0.93836336    -0.70650
O1536       O  0.03345011  0.48246742  0.95371531    -0.70240
O1537       O  0.07145478  0.46383323  0.59277664    -0.70830
O1538       O  0.02525546  0.40530715  0.53536945    -0.70220
O1539       O  0.10871082  0.42179938  0.51830266    -0.70980
O1540       O  0.02123224  0.43849458  0.56948372    -0.70370
O1541       O  0.08090839  0.39546819  0.52100406    -0.70830
O1542       O  0.03833722  0.39989845  0.93391432    -0.70740
O1543       O  0.02933916  0.43385344  0.90618729    -0.70530
C1544       C  0.09364401  0.47636816  0.90434927     0.81260
C1545       C  0.08824618  0.47615515  0.58157766     0.81750
C1546       C  0.03209520  0.49330643  0.99039108     0.80710
C1547       C  0.01424415  0.41849409  0.56149129     0.81090
C1548       C  0.10110627  0.40229783  0.53009579     0.82220
C1549       C  0.02677748  0.41247231  0.90730781     0.81270
Zn1550     Zn  0.05123460  0.55686746  0.80014399     1.49720
Zn1551     Zn  0.04843204  0.55738448  0.68966645     1.49360
Zn1552     Zn  0.05362006  0.60175606  0.74368178     1.49110
Zn1553     Zn  0.09439875  0.56060185  0.74211244     1.49480
O1554       O  0.06220441  0.56952059  0.74453233    -1.80000
O1555       O  0.02923168  0.53467937  0.78411745    -0.70630
O1556       O  0.02718442  0.57787336  0.65620535    -0.70450
O1557       O  0.03675735  0.61162597  0.80236542    -0.69970
O1558       O  0.02843191  0.53352444  0.70915591    -0.70650
O1559       O  0.03310943  0.57842026  0.83691391    -0.70240
O1560       O  0.02840657  0.60909678  0.69743295    -0.70830
O1561       O  0.11036363  0.59004018  0.72346779    -0.70220
O1562       O  0.06936703  0.54067603  0.64863563    -0.70980
O1563       O  0.08319704  0.61721973  0.72408447    -0.70370
O1564       O  0.09945527  0.53709163  0.69278109    -0.70830
O1565       O  0.10557573  0.54117886  0.79734349    -0.70740
O1566       O  0.07312107  0.53758779  0.83469753    -0.70530
C1567       C  0.02225015  0.52666569  0.74742769     0.81260
C1568       C  0.01977664  0.59753128  0.66554247     0.81750
C1569       C  0.02796172  0.59919739  0.83305106     0.80710
C1570       C  0.10351678  0.61035282  0.71572494     0.81090
C1571       C  0.08812750  0.53132247  0.65828575     0.82220
C1572       C  0.09368666  0.53188023  0.82841731     0.81270
Zn1573     Zn  0.32428280  0.83486935  0.66134492     1.49720
Zn1574     Zn  0.32201706  0.81887269  0.55193814     1.49360
Zn1575     Zn  0.31343237  0.78556661  0.62389772     1.49110
Zn1576     Zn  0.28293952  0.82779415  0.60613417     1.49480
O1577       O  0.31273941  0.81673827  0.61349474    -1.80000
O1578       O  0.34522621  0.85748854  0.62334722    -0.70630
O1579       O  0.33633078  0.78907821  0.52752344    -0.70450
O1580       O  0.31945476  0.78055589  0.68726259    -0.69970
O1581       O  0.34362218  0.84380244  0.55228639    -0.70650
O1582       O  0.33939112  0.81159090  0.70564628    -0.70240
O1583       O  0.33700474  0.76824153  0.58939207    -0.70830
O1584       O  0.26601069  0.80385553  0.57705079    -0.70220
O1585       O  0.29490165  0.82927041  0.51430618    -0.70980
O1586       O  0.28453133  0.77323551  0.60149538    -0.70370
O1587       O  0.28173596  0.85355210  0.56471316    -0.70830
O1588       O  0.26704881  0.83519799  0.66189282    -0.70740
O1589       O  0.29639790  0.84838851  0.70043002    -0.70530
C1590       C  0.35069457  0.85810719  0.58101767     0.81260
C1591       C  0.34178892  0.77088339  0.54814901     0.81750
C1592       C  0.33258100  0.79125469  0.71360777     0.80710
C1593       C  0.26851956  0.78267431  0.57989648     0.81090
C1594       C  0.28122835  0.84515289  0.52555839     0.82220
C1595       C  0.27492194  0.84459734  0.69668524     0.81270
Zn1596     Zn  0.17582501  0.83453827  0.82550093     1.49720
Zn1597     Zn  0.17969523  0.82082534  0.93604634     1.49360
Zn1598     Zn  0.16984565  0.78668964  0.87101860     1.49110
Zn1599     Zn  0.21686095  0.81291556  0.86822606     1.49480
O1600       O  0.18516984  0.81512512  0.87337144    -1.80000
O1601       O  0.15410899  0.85675558  0.86212481    -0.70630
O1602       O  0.16693852  0.79218928  0.96822393    -0.70450
O1603       O  0.16124831  0.77934076  0.81040175    -0.69970
O1604       O  0.15722383  0.84513029  0.93429417    -0.70650
O1605       O  0.16183281  0.81274524  0.77549575    -0.70240
O1606       O  0.14422221  0.78142911  0.91343550    -0.70830
O1607       O  0.22480123  0.78228966  0.88602289    -0.70220
O1608       O  0.20786892  0.83343825  0.96726533    -0.70980
O1609       O  0.19167765  0.76392337  0.88919333    -0.70370
O1610       O  0.23221507  0.83342388  0.91007737    -0.70830
O1611       O  0.22955454  0.82097604  0.80893613    -0.70740
O1612       O  0.20542303  0.84901605  0.79462172    -0.70530
C1613       C  0.14899409  0.85815408  0.90449674     0.81260
C1614       C  0.15139187  0.77907411  0.95328507     0.81750
C1615       C  0.15891604  0.79111621  0.77535962     0.80710
C1616       C  0.21294851  0.76482320  0.89394509     0.81090
C1617       C  0.22710387  0.83845674  0.95018323     0.82220
C1618       C  0.22472459  0.83910633  0.78830815     0.81270
Zn1619     Zn  0.32174851  0.69385845  0.81131673     1.49720
Zn1620     Zn  0.32703287  0.67673789  0.91895104     1.49360
Zn1621     Zn  0.30918360  0.72513472  0.88801723     1.49110
Zn1622     Zn  0.28212402  0.68049848  0.86730297     1.49480
O1623       O  0.31161193  0.69411122  0.87276685    -1.80000
O1624       O  0.34361705  0.66874118  0.80813033    -0.70630
O1625       O  0.34518720  0.69986492  0.95982476    -0.70450
O1626       O  0.31931170  0.74704240  0.84052258    -0.69970
O1627       O  0.34700372  0.65464140  0.87831134    -0.70650
O1628       O  0.33548413  0.72399056  0.79070206    -0.70240
O1629       O  0.32801729  0.73183233  0.93913039    -0.70830
O1630       O  0.25949436  0.70437804  0.86690137    -0.70220
O1631       O  0.30173200  0.66197282  0.96265499    -0.70980
O1632       O  0.27791187  0.73068045  0.90656167    -0.70370
O1633       O  0.27129542  0.66394212  0.91936439    -0.70830
O1634       O  0.27752654  0.66173396  0.81372236    -0.70740
O1635       O  0.29527738  0.68624405  0.76993112    -0.70530
C1636       C  0.35153011  0.65430505  0.83563869     0.81260
C1637       C  0.34166526  0.72127356  0.96413097     0.81750
C1638       C  0.33108526  0.74389359  0.80520317     0.80710
C1639       C  0.25982779  0.72148143  0.89262899     0.81090
C1640       C  0.28027706  0.65913172  0.95648140     0.82220
C1641       C  0.27992317  0.67139981  0.77622926     0.81270
Zn1642     Zn  0.19499765  0.66358316  0.61914228     1.49720
Zn1643     Zn  0.15435459  0.70323619  0.62003221     1.49360
Zn1644     Zn  0.20358576  0.71446991  0.64845962     1.49110
Zn1645     Zn  0.19296415  0.70103161  0.54632743     1.49480
O1646       O  0.18609573  0.69524467  0.60943625    -1.80000
O1647       O  0.16606349  0.64690541  0.63830748    -0.70630
O1648       O  0.14981214  0.72893501  0.66624938    -0.70450
O1649       O  0.22410859  0.69695674  0.68800450    -0.69970
O1650       O  0.13906484  0.67405036  0.64188449    -0.70650
O1651       O  0.21669060  0.66103599  0.67073195    -0.70240
O1652       O  0.18540467  0.73779347  0.68253230    -0.70830
O1653       O  0.20978194  0.72916221  0.54154973    -0.70220
O1654       O  0.14282221  0.71988200  0.56438835    -0.70980
O1655       O  0.22334717  0.73267759  0.61098385    -0.70370
O1656       O  0.16590826  0.70899508  0.50889013    -0.70830
O1657       O  0.21647769  0.67951329  0.52062021    -0.70740
O1658       O  0.21695319  0.65109477  0.56927995    -0.70530
C1659       C  0.14595048  0.65368337  0.64849566     0.81260
C1660       C  0.16425350  0.74180344  0.68531213     0.81750
C1661       C  0.22781867  0.67590370  0.69224811     0.80710
C1662       C  0.22272742  0.73825393  0.56996100     0.81090
C1663       C  0.14999885  0.72157368  0.52402022     0.82220
C1664       C  0.22522151  0.66118033  0.53488171     0.81270
C1665       C  0.24639111  0.65351559  0.51349445    -0.09150
C1666       C  0.26417112  0.65300707  0.99194345    -0.10700
C1667       C  0.24628569  0.66916445  0.71998017    -0.09150
C1668       C  0.26283806  0.66784739  0.74324096    -0.10700
C1669       C  0.14354367  0.74121631  0.49798648    -0.09150
C1670       C  0.14450047  0.75929424  0.97866040    -0.10700
C1671       C  0.15524373  0.77805446  0.73493215    -0.09150
C1672       C  0.15703783  0.76181640  0.70996707    -0.10700
C1673       C  0.23929735  0.73171382  0.90410553    -0.09150
C1674       C  0.22448832  0.74514475  0.90545897    -0.10700
C1675       C  0.35077746  0.75163415  0.52346453    -0.09150
C1676       C  0.35134753  0.73505106  0.99924312    -0.10700
C1677       C  0.33803043  0.76341337  0.77958025    -0.09150
C1678       C  0.33898833  0.77888787  0.75309652    -0.10700
C1679       C  0.25202196  0.76892547  0.56026638    -0.09150
C1680       C  0.23751509  0.75529745  0.55624797    -0.10700
C1681       C  0.25844689  0.84930368  0.73233282    -0.09150
C1682       C  0.24214200  0.84768419  0.75769431    -0.10700
C1683       C  0.24475449  0.84783124  0.97714974    -0.09150
C1684       C  0.26210538  0.84995583  0.49786302    -0.10700
C1685       C  0.11883611  0.62571574  0.69321256    -0.09150
C1686       C  0.13095095  0.63817103  0.67146815    -0.10700
C1687       C  0.10205260  0.51262554  0.85469611    -0.09150
C1688       C  0.10206482  0.49508876  0.87667160    -0.10700
C1689       C  0.09495221  0.51199463  0.63200569    -0.09150
C1690       C  0.09470604  0.49468158  0.61026378    -0.10700
C1691       C  0.98283317  0.60604397  0.61847089    -0.09150
C1692       C  0.00002750  0.60557626  0.64106109    -0.10700
C1693       C  0.00949642  0.60725215  0.86132152    -0.09150
C1694       C  0.99205534  0.60690214  0.88339225    -0.10700
C1695       C  0.00848991  0.52925237  0.98932921    -0.09150
C1696       C  0.02225306  0.51473734  0.98961828    -0.10700
C1697       C  0.99311767  0.49481848  0.75114345    -0.09150
C1698       C  0.00677960  0.50921758  0.74959702    -0.10700
C1699       C  0.97640055  0.40871461  0.60577349    -0.09150
C1700       C  0.99321173  0.41102329  0.58238450    -0.10700
C1701       C  0.99235123  0.40264008  0.85524382    -0.09150
C1702       C  0.00895764  0.40333639  0.87928000    -0.10700
C1703       C  0.89859823  0.48996189  0.61931785    -0.09150
C1704       C  0.89951541  0.50690767  0.59582026    -0.10700
C1705       C  0.90279066  0.49163402  0.86624850    -0.09150
C1706       C  0.90400500  0.50821316  0.88980543    -0.10700
C1707       C  0.87886116  0.62316887  0.94043486    -0.09150
C1708       C  0.86702601  0.63491139  0.91671014    -0.10700
C1709       C  0.73679531  0.65783728  0.49671993    -0.09150
C1710       C  0.75352394  0.65914108  0.97355444    -0.10700
C1711       C  0.73274871  0.65602311  0.73985107    -0.09150
C1712       C  0.74954071  0.65663528  0.76394355    -0.10700
C1713       C  0.84664695  0.75561941  0.71644740    -0.09150
C1714       C  0.84756812  0.73882207  0.73990194    -0.10700
C1715       C  0.85222017  0.76578728  0.49505373    -0.09150
C1716       C  0.85195108  0.74818958  0.97369186    -0.10700
C1717       C  0.75389749  0.76005693  0.58520750    -0.09150
C1718       C  0.73960222  0.74619768  0.58550777    -0.10700
C1719       C  0.75689653  0.77746193  0.87813875    -0.09150
C1720       C  0.77130875  0.76357626  0.87856654    -0.10700
C1721       C  0.65253950  0.73277309  0.75182685    -0.09150
C1722       C  0.65395834  0.74932129  0.77620423    -0.10700
C1723       C  0.64570902  0.76570754  0.98262110    -0.09150
C1724       C  0.64547741  0.74910461  0.50662869    -0.10700
C1725       C  0.73793675  0.85928356  0.98152087    -0.09150
C1726       C  0.75569783  0.85935262  0.50285003    -0.10700
C1727       C  0.75359606  0.84859419  0.72455241    -0.09150
C1728       C  0.73669182  0.84915578  0.74763415    -0.10700
C1729       C  0.61504308  0.62004135  0.54643157    -0.09150
C1730       C  0.62751107  0.63201406  0.56844515    -0.10700
C1731       C  0.59919930  0.50062267  0.84706889    -0.09150
C1732       C  0.59994780  0.51828822  0.86887421    -0.10700
C1733       C  0.58569710  0.51778213  0.61626557    -0.09150
C1734       C  0.58370631  0.50110882  0.63880265    -0.10700
C1735       C  0.36585127  0.63714932  0.81570132    -0.09150
C1736       C  0.37786378  0.62434580  0.79431174    -0.10700
C1737       C  0.50067494  0.60558952  0.83960741    -0.09150
C1738       C  0.51728086  0.60470212  0.86360276    -0.10700
C1739       C  0.47349279  0.59372267  0.60515175    -0.09150
C1740       C  0.48887659  0.59201460  0.57832621    -0.10700
C1741       C  0.48515909  0.51035744  0.80027811    -0.09150
C1742       C  0.49861813  0.49563464  0.80357849    -0.10700
C1743       C  0.49111577  0.40005209  0.87945116    -0.09150
C1744       C  0.50929559  0.39907168  0.86002574    -0.10700
C1745       C  0.47278931  0.41104904  0.62625829    -0.09150
C1746       C  0.48905984  0.41339096  0.65085238    -0.10700
C1747       C  0.52482045  0.49055925  0.97001948    -0.09150
C1748       C  0.51120158  0.47591511  0.96908105    -0.10700
C1749       C  0.40409472  0.49859838  0.60349680    -0.09150
C1750       C  0.40281032  0.51485101  0.62903739    -0.10700
C1751       C  0.40327049  0.51884724  0.86397147    -0.09150
C1752       C  0.40606193  0.50171248  0.88496981    -0.10700
C1753       C  0.86270277  0.37086188  0.80471321    -0.09150
C1754       C  0.87487081  0.38269758  0.78187649    -0.10700
C1755       C  0.62509975  0.37508335  0.65906836    -0.09150
C1756       C  0.61251456  0.38743346  0.68027629    -0.10700
C1757       C  0.73253511  0.35651486  0.49636317    -0.09150
C1758       C  0.74939741  0.35461172  0.97251341    -0.10700
C1759       C  0.73026673  0.34789346  0.74723820    -0.09150
C1760       C  0.74731711  0.34502430  0.76871209    -0.10700
C1761       C  0.84824366  0.25187726  0.51226323    -0.09150
C1762       C  0.84891766  0.26959160  0.99156791    -0.10700
C1763       C  0.84828160  0.23995876  0.74215866    -0.09150
C1764       C  0.84749713  0.25760797  0.76316014    -0.10700
C1765       C  0.75986869  0.28338233  0.62923620    -0.09150
C1766       C  0.77314119  0.26834492  0.62912162    -0.10700
C1767       C  0.75920729  0.22713334  0.88007539    -0.09150
C1768       C  0.77243001  0.24215061  0.87993459    -0.10700
C1769       C  0.65457947  0.25770578  0.96326195    -0.09150
C1770       C  0.65419427  0.27378230  0.48865328    -0.10700
C1771       C  0.65507713  0.25218077  0.71247085    -0.09150
C1772       C  0.65442565  0.23621842  0.73791917    -0.10700
C1773       C  0.74819076  0.16447219  0.51672096    -0.09150
C1774       C  0.73104625  0.16182518  0.99535514    -0.10700
C1775       C  0.73212533  0.15434768  0.74464305    -0.09150
C1776       C  0.74887832  0.15641337  0.72067100    -0.10700
C1777       C  0.13351116  0.87491007  0.92169706    -0.09150
C1778       C  0.12082557  0.88728861  0.94236150    -0.10700
C1779       C  0.09272181  0.99585560  0.87112413    -0.09150
C1780       C  0.09153885  0.01239753  0.84767970    -0.10700
C1781       C  0.09558084  0.99181158  0.61388260    -0.09150
C1782       C  0.09500958  0.00857628  0.63813264    -0.10700
C1783       C  0.87640415  0.12431442  0.54261354    -0.09150
C1784       C  0.86454604  0.13648260  0.56558781    -0.10700
C1785       C  0.99514744  0.10480276  0.59078462    -0.09150
C1786       C  0.01195780  0.10607890  0.61428669    -0.10700
C1787       C  0.00184036  0.10996638  0.84898843    -0.09150
C1788       C  0.98425842  0.11008035  0.87067190    -0.10700
C1789       C  0.00253939  0.99514006  0.96105154    -0.09150
C1790       C  0.98884764  0.00962561  0.96079920    -0.10700
C1791       C  0.88030423  0.88587411  0.68577621    -0.09150
C1792       C  0.86818326  0.87369303  0.66362995    -0.10700
C1793       C  0.00348535  0.91190138  0.65035133    -0.09150
C1794       C  0.02008947  0.91051473  0.62602292    -0.10700
C1795       C  0.00332954  0.90340462  0.88017483    -0.09150
C1796       C  0.98674092  0.90399011  0.85621308    -0.10700
C1797       C  0.97351987  0.01507729  0.74799337    -0.09150
C1798       C  0.98703272  0.02978666  0.74833653    -0.10700
C1799       C  0.89187812  0.01314498  0.87706228    -0.09150
C1800       C  0.89239168  0.99541139  0.85560144    -0.10700
C1801       C  0.90257611  0.99384579  0.62188986    -0.09150
C1802       C  0.90299294  0.01082236  0.59937413    -0.10700
C1803       C  0.37697021  0.88810685  0.54062935    -0.09150
C1804       C  0.36505043  0.87546875  0.56237036    -0.10700
C1805       C  0.40612441  0.99713654  0.87887201    -0.09150
C1806       C  0.40590194  0.01363649  0.85414185    -0.10700
C1807       C  0.40398122  0.99788991  0.60271454    -0.09150
C1808       C  0.40354275  0.01402350  0.62730492    -0.10700
C1809       C  0.61425070  0.12133510  0.92944633    -0.09150
C1810       C  0.62629324  0.13410780  0.90829845    -0.10700
C1811       C  0.50923397  0.10968199  0.60665015    -0.09150
C1812       C  0.49191213  0.11042979  0.62878984    -0.10700
C1813       C  0.49082591  0.09404718  0.90339950    -0.09150
C1814       C  0.47502198  0.09658686  0.87769202    -0.10700
C1815       C  0.51984825  0.99578001  0.03517565    -0.09150
C1816       C  0.50703248  0.98044910  0.03251545    -0.10700
C1817       C  0.61540015  0.88524940  0.79228591    -0.09150
C1818       C  0.62768071  0.87292922  0.81391426    -0.10700
C1819       C  0.49116415  0.91426098  0.82907460    -0.09150
C1820       C  0.47524867  0.91213473  0.85488194    -0.10700
C1821       C  0.50879362  0.89955861  0.62441423    -0.09150
C1822       C  0.49135754  0.89918944  0.60289768    -0.10700
C1823       C  0.51808682  0.01201767  0.69538086    -0.09150
C1824       C  0.50523789  0.02739560  0.69799987    -0.10700
C1825       C  0.60361634  0.01365149  0.60579249    -0.09150
C1826       C  0.60354915  0.99538829  0.62533020    -0.10700
C1827       C  0.58932131  0.99554032  0.85349932    -0.09150
C1828       C  0.58927134  0.01187018  0.87773112    -0.10700
C1829       C  0.12763711  0.37574199  0.57945621    -0.09150
C1830       C  0.11547453  0.38795043  0.55728615    -0.10700
C1831       C  0.36393902  0.37567383  0.92250301    -0.09150
C1832       C  0.37614144  0.38879329  0.94244564    -0.10700
C1833       C  0.23990876  0.34899412  0.73129131    -0.09150
C1834       C  0.25642926  0.34973808  0.75607839    -0.10700
C1835       C  0.24073360  0.34452979  0.51075001    -0.09150
C1836       C  0.25758213  0.34720438  0.98849090    -0.10700
C1837       C  0.12835836  0.13807548  0.81359037    -0.09150
C1838       C  0.11621697  0.12616726  0.79061067    -0.10700
C1839       C  0.15147355  0.27846125  0.75800790    -0.09150
C1840       C  0.15410724  0.26185643  0.78150105    -0.10700
C1841       C  0.14084069  0.24322691  0.98817982    -0.09150
C1842       C  0.14135779  0.26117852  0.50827794    -0.10700
C1843       C  0.24148976  0.24879034  0.92418768    -0.09150
C1844       C  0.25624545  0.26216183  0.92179411    -0.10700
C1845       C  0.36390768  0.13664589  0.67387935    -0.09150
C1846       C  0.37620540  0.12389536  0.69467149    -0.10700
C1847       C  0.33744716  0.27886809  0.73110386    -0.09150
C1848       C  0.33537498  0.26297622  0.70556276    -0.10700
C1849       C  0.34662690  0.25235115  0.96967078    -0.09150
C1850       C  0.34489464  0.23565764  0.49318144    -0.10700
C1851       C  0.21691301  0.23960823  0.61518701    -0.09150
C1852       C  0.23164892  0.22600035  0.61632810    -0.10700
C1853       C  0.26046484  0.15215186  0.49921516    -0.09150
C1854       C  0.24283263  0.15254440  0.97724743    -0.10700
C1855       C  0.26000217  0.16398286  0.74389812    -0.09150
C1856       C  0.24265224  0.16578999  0.76499322    -0.10700
loop_ 
_geom_bond_atom_site_label_1 
_geom_bond_atom_site_label_2 
_geom_bond_distance 
_geom_bond_site_symmetry_2 
_ccdc_geom_bond_type 
Zn1           O5   1.916       .  S
Zn1           O6   2.038       .  S
Zn1          O10   2.054       .  S
Zn1          O17   1.967       .  S
Zn2           O5   1.922       .  S
Zn2           O7   1.943       .  S
Zn2           O9   1.963       .  S
Zn2          O13   1.953       .  S
Zn3           O5   1.887       .  S
Zn3           O8   2.014       .  S
Zn3          O11   1.964       .  S
Zn3          O14   1.951       .  S
Zn4           O5   1.920       .  S
Zn4          O12   2.114       .  S
Zn4          O15   2.169       .  S
Zn4          O16   2.143       .  S
O6           C18   1.275       .  A
O7           C19   1.263       .  A
O8           C20   1.269       .  A
O9           C18   1.263       .  A
O10          C20   1.276       .  A
O11          C19   1.270       .  A
O12          C21   1.287       .  A
O13          C22   1.260       .  A
O14          C21   1.267       .  A
O15          C22   1.290       .  A
O16          C23   1.297       .  A
O17          C23   1.272       .  A
C18         C927   1.425       .  S
C19         C924   1.396       .  S
C20         C920   1.446       .  S
C21         C922   1.444   1_554  S
C22         C925   1.467   1_554  S
C23         C917   1.447       .  S
Zn24         O28   1.948       .  S
Zn24         O29   1.921       .  S
Zn24         O33   2.017       .  S
Zn24         O40   1.991       .  S
Zn25         O28   1.934       .  S
Zn25         O30   1.988       .  S
Zn25         O32   1.936       .  S
Zn25         O36   2.018       .  S
Zn26         O28   1.964       .  S
Zn26         O31   2.107       .  S
Zn26         O34   2.003       .  S
Zn26         O37   2.059       .  S
Zn27         O28   1.956       .  S
Zn27         O35   2.052       .  S
Zn27         O38   2.058       .  S
Zn27         O39   2.054       .  S
O29          C41   1.256       .  A
O30          C42   1.269       .  A
O31          C43   1.281       .  A
O32          C41   1.264       .  A
O33          C43   1.271       .  A
O34          C42   1.267       .  A
O35          C44   1.284       .  A
O36          C45   1.270       .  A
O37          C44   1.285       .  A
O38          C45   1.273       .  A
O39          C46   1.276       .  A
O40          C46   1.271       .  A
C41         C915   1.387       .  S
C42         C928   1.426       .  S
C43         C926   1.471       .  S
C44         C909   1.447       .  S
C45         C912   1.452       .  S
C46         C913   1.446       .  S
Zn47         O51   1.881       .  S
Zn47         O52   1.949       .  S
Zn47         O56   1.964       .  S
Zn47         O63   1.928       .  S
Zn48         O51   1.911       .  S
Zn48         O53   2.135       .  S
Zn48         O55   2.160       .  S
Zn48         O59   2.120       .  S
Zn49         O51   1.917       .  S
Zn49         O54   2.041       .  S
Zn49         O57   1.964       .  S
Zn49         O60   2.076       .  S
Zn50         O51   1.880       .  S
Zn50         O58   1.995       .  S
Zn50         O61   1.923       .  S
Zn50         O62   1.948       .  S
O52          C64   1.262       .  A
O53          C65   1.298       .  A
O54          C66   1.274       .  A
O55          C64   1.290       .  A
O56          C66   1.262       .  A
O57          C65   1.274       .  A
O58          C67   1.266       .  A
O59          C68   1.289       .  A
O60          C67   1.278       .  A
O61          C68   1.265       .  A
O62          C69   1.267       .  A
O63          C69   1.263       .  A
C64         C906   1.460       .  S
C65         C903   1.441       .  S
C66         C908   1.425       .  S
C67         C921   1.449       .  S
C68         C919   1.437       .  S
C69         C916   1.387       .  S
Zn70         O74   1.939       .  S
Zn70         O75   1.950       .  S
Zn70         O79   1.989       .  S
Zn70         O86   1.929       .  S
Zn71         O74   1.899       .  S
Zn71         O76   1.968       .  S
Zn71         O78   1.945       .  S
Zn71         O82   1.974       .  S
Zn72         O74   1.923       .  S
Zn72         O77   2.083       .  S
Zn72         O80   2.035       .  S
Zn72         O83   1.967       .  S
Zn73         O74   1.935       .  S
Zn73         O81   2.127       .  S
Zn73         O84   2.141       .  S
Zn73         O85   2.119       .  S
O75          C87   1.262       .  A
O76          C88   1.265       .  A
O77          C89   1.278       .  A
O78          C87   1.268       .  A
O79          C89   1.265       .  A
O80          C88   1.273       .  A
O81          C90   1.295       .  A
O82          C91   1.266       .  A
O83          C90   1.273       .  A
O84          C91   1.288       .  A
O85          C92   1.285       .  A
O86          C92   1.261       .  A
C87         C923   1.395       .  S
C88         C907   1.427       .  S
C89         C914   1.450       .  S
C90         C901   1.442       .  S
C91         C905   1.461       .  S
C92         C911   1.444       .  S
Zn93         O97   1.953       .  S
Zn93         O98   2.010       .  S
Zn93        O102   2.089       .  S
Zn93        O109   2.051       .  S
Zn94         O97   1.931       .  S
Zn94         O99   1.947       .  S
Zn94        O101   1.984       .  S
Zn94        O105   2.018       .  S
Zn95         O97   1.945       .  S
Zn95        O100   2.023       .  S
Zn95        O103   1.947       .  S
Zn95        O106   1.988       .  S
Zn96         O97   1.961       .  S
Zn96        O104   2.059       .  S
Zn96        O107   2.067       .  S
Zn96        O108   2.048       .  S
O98         C110   1.268       .  A
O99         C111   1.265       .  A
O100        C112   1.273       .  A
O101        C110   1.269       .  A
O102        C112   1.279       .  A
O103        C111   1.260       .  A
O104        C113   1.278       .  A
O105        C114   1.270       .  A
O106        C113   1.271       .  A
O107        C114   1.275       .  A
O108        C115   1.283       .  A
O109        C115   1.284       .  A
C110        C899   1.426       .  S
C111        C895   1.397   1_565  S
C112        C898   1.467       .  S
C113        C893   1.441       .  S
C114        C891   1.453       .  S
C115        C889   1.445       .  S
Zn116       O120   1.930       .  S
Zn116       O121   1.988       .  S
Zn116       O125   2.021       .  S
Zn116       O132   1.947       .  S
Zn117       O120   1.951       .  S
Zn117       O122   2.050       .  S
Zn117       O124   2.006       .  S
Zn117      O1056   2.089       .  S
Zn118       O120   1.958       .  S
Zn118       O123   2.061       .  S
Zn118       O126   2.047       .  S
Zn118      O1057   2.065       .  S
Zn119      O1048   1.941   1_554  S
Zn119       O127   1.989       .  S
Zn119       O130   2.021       .  S
Zn119       O131   1.945       .  S
O120      Zn1047   1.941       .  S
O121        C133   1.269       .  A
O122        C134   1.284       .  A
O123        C135   1.274       .  A
O124        C133   1.267       .  A
O125        C135   1.270       .  A
O126        C134   1.283       .  A
O127        C136   1.271       .  A
O128      Zn1045   2.089   1_554  S
O128        C137   1.279       .  A
O129      Zn1046   2.065   1_554  S
O129        C136   1.280       .  A
O130        C137   1.273       .  A
O131       C1066   1.261       .  A
O132        C138   1.265       .  A
C133        C900   1.426       .  S
C134        C881   1.445       .  S
C135        C885   1.452       .  S
C136        C883   1.443       .  S
C137        C897   1.467       .  S
C138       O1059   1.261       .  A
C138        C887   1.397   1_545  S
Zn139      O1071   1.915       .  S
Zn139       O144   1.954       .  S
Zn139       O148   1.937       .  S
Zn139      O1083   1.995       .  S
Zn140      O1071   1.882       .  S
Zn140       O145   1.969       .  S
Zn140       O147   1.947       .  S
Zn140      O1079   1.967       .  S
Zn141      O1071   1.918       .  S
Zn141       O146   2.129       .  S
Zn141       O149   2.147       .  S
Zn141       O152   2.141       .  S
Zn142       O143   1.914   1_554  S
Zn142       O150   1.939       .  S
Zn142       O153   2.023       .  S
Zn142       O154   2.060       .  S
O143      Zn1067   1.915       .  S
O143      Zn1068   1.882       .  S
O143      Zn1069   1.918       .  S
O144        C156   1.263       .  A
O145        C157   1.267       .  A
O146        C158   1.288       .  A
O147        C156   1.268       .  A
O148        C158   1.264       .  A
O149        C157   1.290       .  A
O150        C159   1.268       .  A
O151      Zn1068   1.967   1_554  S
O151        C160   1.264       .  A
O152       C1087   1.297       .  A
O153        C160   1.272       .  A
O154        C161   1.277       .  A
O155      Zn1067   1.995   1_554  S
O155        C161   1.268       .  A
C156        C888   1.396       .  S
C157        C877   1.460       .  S
C158        C892   1.446       .  S
C159       O1080   1.297   1_554  A
C159        C875   1.439       .  S
C160        C879   1.423       .  S
C161        C894   1.444       .  S
Zn162       O166   1.916       .  S
Zn162       O167   1.938       .  S
Zn162       O171   1.996       .  S
Zn162       O178   1.957       .  S
Zn163       O166   1.924       .  S
Zn163       O168   2.147       .  S
Zn163       O170   2.126       .  S
Zn163       O174   2.149       .  S
Zn164       O166   1.916       .  S
Zn164       O169   2.064       .  S
Zn164       O172   1.954       .  S
Zn164       O175   2.026       .  S
Zn165       O166   1.885       .  S
Zn165       O173   1.963       .  S
Zn165       O176   1.965       .  S
Zn165       O177   1.945       .  S
O167        C179   1.265       .  A
O168        C180   1.298       .  A
O169        C181   1.277       .  A
O170        C179   1.288       .  A
O171        C181   1.268       .  A
O172        C180   1.270       .  A
O173        C182   1.264       .  A
O174        C183   1.290       .  A
O175        C182   1.273       .  A
O176        C183   1.266       .  A
O177        C184   1.267       .  A
O178        C184   1.264       .  A
C179        C886   1.445       .  S
C180        C918   1.446       .  S
C181        C884   1.445       .  S
C182        C880   1.422       .  S
C183        C878   1.460       .  S
C184        C896   1.397       .  S
Zn185       O189   1.945       .  S
Zn185       O190   2.028       .  S
Zn185       O194   2.092       .  S
Zn185       O201   2.040       .  S
Zn186       O189   1.933       .  S
Zn186       O191   1.940       .  S
Zn186       O193   1.999       .  S
Zn186       O197   2.019       .  S
Zn187       O189   1.910       .  S
Zn187       O192   2.012       .  S
Zn187       O195   1.940       .  S
Zn187       O198   1.989       .  S
Zn188       O189   1.950       .  S
Zn188       O196   2.062       .  S
Zn188       O199   2.069       .  S
Zn188       O200   2.043       .  S
O190        C202   1.270       .  A
O191        C203   1.263       .  A
O192        C204   1.271       .  A
O193        C202   1.270       .  A
O194        C204   1.280       .  A
O195        C203   1.264       .  A
O196        C205   1.280       .  A
O197        C206   1.271       .  A
O198        C205   1.271       .  A
O199        C206   1.274       .  A
O200        C207   1.284       .  A
O201        C207   1.284       .  A
C202        C873   1.436       .  S
C203        C869   1.391   1_565  S
C204        C872   1.463       .  S
C205        C868   1.442       .  S
C206        C865   1.454   1_655  S
C207        C863   1.439       .  S
Zn208      O1140   1.970       .  S
Zn208       O213   2.032   1_556  S
Zn208       O224   2.042   1_556  S
Zn208      O1145   2.100       .  S
Zn209      O1140   1.951   1_554  S
Zn209       O214   1.934       .  S
Zn209       O216   1.995       .  S
Zn209       O220   2.012       .  S
Zn210       O212   1.939       .  S
Zn210       O215   2.003       .  S
Zn210       O218   1.908       .  S
Zn210       O221   1.985       .  S
Zn211      O1140   1.971       .  S
Zn211       O222   2.063   1_556  S
Zn211       O223   2.039   1_556  S
Zn211      O1147   2.082       .  S
O212      Zn1136   1.970       .  S
O212      Zn1137   1.951       .  S
O212      Zn1139   1.971       .  S
O213        C225   1.270       .  A
O214       C1154   1.263   1_554  A
O215        C227   1.269       .  A
O216        C225   1.268       .  A
O217      Zn1136   2.100       .  S
O217        C227   1.280       .  A
O218        C226   1.256       .  A
O219      Zn1139   2.082       .  S
O219        C228   1.280       .  A
O220        C229   1.269       .  A
O221        C228   1.268       .  A
O222        C229   1.272       .  A
O223        C230   1.283       .  A
O224        C230   1.284       .  A
C225        C874   1.436       .  S
C226       O1142   1.263       .  A
C226        C862   1.381       .  S
C227        C871   1.463       .  S
C228        C860   1.451       .  S
C229        C857   1.451       .  S
C230        C855   1.438       .  S
Zn231       O235   1.907       .  S
Zn231       O240   1.995       .  S
Zn231       O247   1.928       .  S
Zn231      O1164   1.927       .  S
Zn232      O1163   1.939   1_554  S
Zn232       O237   2.126       .  S
Zn232       O239   2.135       .  S
Zn232       O243   2.151       .  S
Zn233       O235   1.932       .  S
Zn233       O238   2.057       .  S
Zn233       O241   1.948       .  S
Zn233       O244   2.036       .  S
Zn234       O235   1.903       .  S
Zn234       O242   1.976       .  S
Zn234       O246   1.923       .  S
Zn234      O1173   1.950       .  S
O235      Zn1160   1.939       .  S
O236      Zn1159   1.927   1_554  S
O236        C248   1.262       .  A
O237       C1177   1.296   1_554  A
O238        C250   1.274       .  A
O239        C248   1.288       .  A
O240        C250   1.265       .  A
O241        C249   1.271       .  A
O242        C251   1.264       .  A
O243        C252   1.288       .  A
O244        C251   1.272       .  A
O245      Zn1162   1.950   1_554  S
O245        C252   1.262       .  A
O246        C253   1.263       .  A
O247        C253   1.263       .  A
C248        C866   1.446       .  S
C249       O1165   1.296       .  A
C249        C850   1.435       .  S
C250        C867   1.443       .  S
C251        C851   1.430       .  S
C252        C853   1.458       .  S
C253        C861   1.381       .  S
Zn254       O258   1.943       .  S
Zn254       O259   2.056       .  S
Zn254       O263   2.065       .  S
Zn254       O270   2.077       .  S
Zn255       O258   1.954       .  S
Zn255       O260   2.021       .  S
Zn255       O262   2.050       .  S
Zn255       O266   2.106       .  S
Zn256       O258   1.946       .  S
Zn256       O261   2.016       .  S
Zn256       O264   1.993       .  S
Zn256       O267   1.941       .  S
Zn257       O258   1.908       .  S
Zn257       O265   1.936       .  S
Zn257       O268   2.008       .  S
Zn257       O269   1.981       .  S
O259        C271   1.285       .  A
O260        C272   1.270       .  A
O261        C273   1.271       .  A
O262        C271   1.285       .  A
O263        C273   1.273       .  A
O264        C272   1.270       .  A
O265        C274   1.263       .  A
O266        C275   1.284       .  A
O267        C274   1.262       .  A
O268        C275   1.271       .  A
O269        C276   1.269       .  A
O270        C276   1.280       .  A
C271        C910   1.447       .  S
C272        C852   1.431       .  S
C273        C859   1.454       .  S
C274        C870   1.390   1_455  S
C275        C854   1.461       .  S
C276        C858   1.447       .  S
Zn277       O281   1.928       .  S
Zn277       O282   2.126       .  S
Zn277       O286   2.094       .  S
Zn277       O293   2.115       .  S
Zn278       O281   1.937       .  S
Zn278       O283   1.945       .  S
Zn278       O285   1.963       .  S
Zn278       O289   1.974       .  S
Zn279       O281   1.889       .  S
Zn279       O284   1.954       .  S
Zn279       O287   1.952       .  S
Zn279       O290   2.004       .  S
Zn280       O281   1.917       .  S
Zn280       O288   2.052       .  S
Zn280       O291   2.037       .  S
Zn280       O292   1.973       .  S
O282        C294   1.285       .  A
O283        C295   1.262       .  A
O284        C296   1.267       .  A
O285        C294   1.263       .  A
O286        C296   1.284       .  A
O287        C295   1.268       .  A
O288        C297   1.275       .  A
O289        C298   1.266       .  A
O290        C297   1.268       .  A
O291        C298   1.274       .  A
O292        C299   1.273       .  A
O293        C299   1.293       .  A
C294        C847   1.457       .  S
C295        C839   1.394       .  S
C296        C844   1.439       .  S
C297        C841   1.443       .  S
C298        C846   1.430       .  S
C299        C882   1.441       .  S
Zn300       O304   1.939       .  S
Zn300       O305   2.040       .  S
Zn300       O309   2.052       .  S
Zn300       O316   2.050       .  S
Zn301       O304   1.949       .  S
Zn301       O306   2.093       .  S
Zn301       O308   2.037       .  S
Zn301       O312   2.015       .  S
Zn302       O304   1.915       .  S
Zn302       O307   1.990       .  S
Zn302       O310   2.015       .  S
Zn302       O313   1.942       .  S
Zn303       O304   1.941       .  S
Zn303       O311   1.951       .  S
Zn303       O314   2.004       .  S
Zn303       O315   2.021       .  S
O305        C317   1.283       .  A
O306        C318   1.282       .  A
O307        C319   1.271       .  A
O308        C317   1.283       .  A
O309        C319   1.277       .  A
O310        C318   1.272       .  A
O311        C320   1.264       .  A
O312        C321   1.270       .  A
O313        C320   1.262       .  A
O314        C321   1.271       .  A
O315        C322   1.272       .  A
O316        C322   1.271       .  A
C317        C856   1.438       .  S
C318        C848   1.460       .  S
C319        C835   1.443       .  S
C320        C838   1.396       .  S
C321        C845   1.432       .  S
C322        C833   1.451       .  S
Zn323       O327   1.918       .  S
Zn323       O328   2.051       .  S
Zn323       O332   1.970       .  S
Zn323       O339   2.032       .  S
Zn324       O327   1.892       .  S
Zn324       O329   1.954       .  S
Zn324       O331   2.009       .  S
Zn324       O335   1.955       .  S
Zn325       O327   1.929       .  S
Zn325       O330   2.117       .  S
Zn325       O333   2.092       .  S
Zn325       O336   2.132       .  S
Zn326       O327   1.939       .  S
Zn326       O334   1.966       .  S
Zn326       O337   1.947       .  S
Zn326       O338   1.974       .  S
O328        C340   1.275       .  A
O329        C341   1.267       .  A
O330        C342   1.293       .  A
O331        C340   1.268       .  A
O332        C342   1.273       .  A
O333        C341   1.284       .  A
O334        C343   1.263       .  A
O335        C344   1.269       .  A
O336        C343   1.285       .  A
O337        C344   1.262       .  A
O338        C345   1.266       .  A
O339        C345   1.273       .  A
C340        C843   1.444       .  S
C341        C842   1.439   1_554  S
C342        C827   1.441       .  S
C343        C829   1.459   1_554  S
C344        C837   1.395       .  S
C345        C831   1.428       .  S
Zn346       O350   1.946       .  S
Zn346       O351   2.099       .  S
Zn346       O355   2.007       .  S
Zn346       O362   2.042       .  S
Zn347       O350   1.910       .  S
Zn347       O352   1.939       .  S
Zn347       O354   2.014       .  S
Zn347       O358   1.992       .  S
Zn348       O350   1.942       .  S
Zn348       O353   2.005       .  S
Zn348       O356   1.949       .  S
Zn348       O359   2.020       .  S
Zn349       O350   1.936       .  S
Zn349       O357   2.040       .  S
Zn349       O360   2.060       .  S
Zn349       O361   2.041       .  S
O351        C363   1.284       .  A
O352        C364   1.262       .  A
O353        C365   1.271       .  A
O354        C363   1.272       .  A
O355        C365   1.268       .  A
O356        C364   1.264       .  A
O357        C366   1.269       .  A
O358        C367   1.271       .  A
O359        C366   1.272       .  A
O360        C367   1.278       .  A
O361        C368   1.283       .  A
O362        C368   1.284       .  A
C363        C830   1.462       .  S
C364        C840   1.395       .  S
C365        C832   1.431       .  S
C366        C836   1.447       .  S
C367        C834   1.447       .  S
C368        C825   1.441       .  S
Zn369       O373   1.919       .  S
Zn369       O374   2.040       .  S
Zn369       O378   1.961       .  S
Zn369       O385   2.085       .  S
Zn370       O373   1.888       .  S
Zn370       O377   1.965       .  S
Zn370       O381   1.946       .  S
Zn370      O1303   1.978       .  S
Zn371      O1301   1.921   1_554  S
Zn371       O376   2.130       .  S
Zn371       O379   2.143       .  S
Zn371       O382   2.122       .  S
Zn372       O373   1.925       .  S
Zn372       O383   1.944       .  S
Zn372       O384   1.989       .  S
Zn372      O1308   1.927       .  S
O373      Zn1299   1.921       .  S
O374        C386   1.274       .  A
O375      Zn1298   1.978   1_554  S
O375        C387   1.268       .  A
O376       C1316   1.296   1_554  A
O377        C386   1.264       .  A
O378        C388   1.272       .  A
O379        C387   1.289       .  A
O380      Zn1300   1.927   1_554  S
O380        C389   1.262       .  A
O381        C390   1.268       .  A
O382        C389   1.287       .  A
O383        C390   1.262       .  A
O384        C391   1.266       .  A
O385        C391   1.279       .  A
C386        C824   1.427       .  S
C387        C821   1.462       .  S
C388       O1304   1.296       .  A
C388        C904   1.441       .  S
C389        C817   1.443       .  S
C390        C820   1.393       .  S
C391        C815   1.450       .  S
Zn392       O396   1.886       .  S
Zn392       O397   1.963       .  S
Zn392       O401   1.932       .  S
Zn392       O408   1.953       .  S
Zn393       O396   1.914       .  S
Zn393       O398   2.073       .  S
Zn393       O400   2.043       .  S
Zn393       O404   1.955       .  S
Zn394       O396   1.873       .  S
Zn394       O399   1.963       .  S
Zn394       O402   1.998       .  S
Zn394       O405   1.939       .  S
Zn395       O396   1.909       .  S
Zn395       O403   2.099       .  S
Zn395       O406   2.132       .  S
Zn395       O407   2.157       .  S
O397        C409   1.263       .  A
O398        C410   1.278       .  A
O399        C411   1.270       .  A
O400        C409   1.275       .  A
O401        C411   1.262       .  A
O402        C410   1.266       .  A
O403        C412   1.287       .  A
O404        C413   1.272       .  A
O405        C412   1.268       .  A
O406        C413   1.297       .  A
O407        C414   1.289       .  A
O408        C414   1.262       .  A
C409        C823   1.426       .  S
C410        C809   1.447       .  S
C411        C813   1.393       .  S
C412        C811   1.434       .  S
C413        C808   1.439       .  S
C414        C822   1.461       .  S
Zn415       O419   1.951       .  S
Zn415       O420   2.052       .  S
Zn415       O424   2.055       .  S
Zn415       O431   2.048       .  S
Zn416       O419   1.963       .  S
Zn416       O421   1.993       .  S
Zn416       O423   2.046       .  S
Zn416       O427   2.097       .  S
Zn417       O419   1.927       .  S
Zn417       O422   2.017       .  S
Zn417       O425   1.985       .  S
Zn417       O428   1.938       .  S
Zn418       O419   1.949       .  S
Zn418       O426   1.934       .  S
Zn418       O429   2.023       .  S
Zn418       O430   1.999       .  S
O420        C432   1.284       .  A
O421        C433   1.266       .  A
O422        C434   1.269       .  A
O423        C432   1.283       .  A
O424        C434   1.273       .  A
O425        C433   1.268       .  A
O426        C435   1.258       .  A
O427        C436   1.280       .  A
O428        C435   1.265       .  A
O429        C436   1.272       .  A
O430        C437   1.273       .  A
O431        C437   1.276       .  A
C432        C828   1.445       .  S
C433        C806   1.421       .  S
C434        C818   1.451       .  S
C435        C814   1.391       .  S
C436        C803   1.468       .  S
C437        C816   1.447       .  S
Zn438       O442   1.921       .  S
Zn438       O443   1.941       .  S
Zn438       O454   1.946       .  S
Zn438      O1375   1.961       .  S
Zn439       O442   1.885       .  S
Zn439       O446   1.959       .  S
Zn439       O450   1.941       .  S
Zn439      O1372   2.015       .  S
Zn440      O1370   1.910   1_554  S
Zn440       O445   2.027       .  S
Zn440       O448   2.037       .  S
Zn440       O451   1.954       .  S
Zn441       O442   1.925       .  S
Zn441       O449   2.132       .  S
Zn441       O452   2.112       .  S
Zn441       O453   2.162       .  S
O442      Zn1368   1.910       .  S
O443        C455   1.264       .  A
O444      Zn1367   2.015   1_554  S
O444        C456   1.270       .  A
O445        C457   1.273       .  A
O446        C455   1.269       .  A
O447      Zn1366   1.961   1_554  S
O447        C457   1.262       .  A
O448        C456   1.274       .  A
O449       C1386   1.296       .  A
O450        C459   1.265       .  A
O451        C458   1.270       .  A
O452        C459   1.286       .  A
O453        C460   1.289       .  A
O454        C460   1.259       .  A
C455        C819   1.394       .  S
C456        C812   1.441       .  S
C457        C805   1.420       .  S
C458       O1377   1.296   1_554  A
C458        C801   1.441       .  S
C459        C810   1.441       .  S
C460        C804   1.464       .  S
Zn461       O465   1.949       .  S
Zn461       O466   2.050       .  S
Zn461       O470   2.030       .  S
Zn461       O477   2.098       .  S
Zn462       O465   1.956       .  S
Zn462       O467   2.073       .  S
Zn462       O469   2.053       .  S
Zn462       O473   2.070       .  S
Zn463       O465   1.935       .  S
Zn463       O468   1.997       .  S
Zn463       O471   2.019       .  S
Zn463       O474   1.943       .  S
Zn464       O465   1.917       .  S
Zn464       O472   1.937       .  S
Zn464       O475   1.985       .  S
Zn464       O476   2.010       .  S
O466        C478   1.285       .  A
O467        C479   1.275       .  A
O468        C480   1.270       .  A
O469        C478   1.285       .  A
O470        C480   1.270       .  A
O471        C479   1.271       .  A
O472        C481   1.262       .  A
O473        C482   1.280       .  A
O474        C481   1.263       .  A
O475        C482   1.270       .  A
O476        C483   1.271       .  A
O477        C483   1.281       .  A
C478        C890   1.444       .  S
C479        C794   1.455       .  S
C480        C800   1.436       .  S
C481        C791   1.391       .  S
C482        C795   1.443       .  S
C483        C797   1.464       .  S
Zn484       O488   1.942       .  S
Zn484       O489   1.987       .  S
Zn484       O493   2.004       .  S
Zn484       O500   1.910       .  S
Zn485       O488   1.971       .  S
Zn485       O490   2.040       .  S
Zn485       O492   2.078       .  S
Zn485       O496   2.063       .  S
Zn486       O488   1.972       .  S
Zn486       O491   2.103       .  S
Zn486       O494   2.042       .  S
Zn486       O497   2.034       .  S
Zn487       O488   1.950       .  S
Zn487       O495   1.993       .  S
Zn487       O498   2.011       .  S
Zn487       O499   1.935       .  S
O489        C501   1.269       .  A
O490        C502   1.283       .  A
O491        C503   1.280       .  A
O492        C501   1.279       .  A
O493        C503   1.269       .  A
O494        C502   1.284       .  A
O495        C504   1.268       .  A
O496        C505   1.272       .  A
O497        C504   1.270       .  A
O498        C505   1.269       .  A
O499        C506   1.263       .  A
O500        C506   1.257       .  A
C501        C787   1.451   1_554  S
C502        C864   1.438       .  S
C503        C798   1.464       .  S
C504        C799   1.436       .  S
C505        C785   1.451       .  S
C506        C789   1.383       .  S
Zn507       O511   1.904       .  S
Zn507       O512   1.930       .  S
Zn507       O516   1.996       .  S
Zn507       O523   1.930       .  S
Zn508       O511   1.941       .  S
Zn508       O513   2.138       .  S
Zn508       O515   2.139       .  S
Zn508       O519   2.156       .  S
Zn509       O511   1.933       .  S
Zn509       O514   2.059       .  S
Zn509       O517   1.950       .  S
Zn509       O520   2.039       .  S
Zn510       O511   1.907       .  S
Zn510       O518   1.975       .  S
Zn510       O521   1.948       .  S
Zn510       O522   1.925       .  S
O512        C524   1.262       .  A
O513        C525   1.298       .  A
O514        C526   1.274       .  A
O515        C524   1.289       .  A
O516        C526   1.265       .  A
O517        C525   1.271       .  A
O518        C527   1.264       .  A
O519        C528   1.289       .  A
O520        C527   1.272       .  A
O521        C528   1.262       .  A
O522        C529   1.263       .  A
O523        C529   1.264       .  A
C524        C793   1.447       .  S
C525        C802   1.439       .  S
C526        C796   1.444       .  S
C527        C781   1.430   1_554  S
C528        C783   1.459       .  S
C529        C790   1.382       .  S
Zn530       O534   1.904       .  S
Zn530       O535   2.012       .  S
Zn530       O539   1.985       .  S
Zn530       O546   1.937       .  S
Zn531       O534   1.951       .  S
Zn531       O536   2.048       .  S
Zn531       O538   2.106       .  S
Zn531       O542   2.019       .  S
Zn532       O534   1.941       .  S
Zn532       O537   2.073       .  S
Zn532       O540   2.047       .  S
Zn532       O543   2.061       .  S
Zn533       O534   1.948       .  S
Zn533       O541   2.020       .  S
Zn533       O544   1.995       .  S
Zn533       O545   1.940       .  S
O535        C547   1.271       .  A
O536        C548   1.285       .  A
O537        C549   1.280       .  A
O538        C547   1.285       .  A
O539        C549   1.270       .  A
O540        C548   1.284       .  A
O541        C550   1.271       .  A
O542        C551   1.269       .  A
O543        C550   1.272       .  A
O544        C551   1.270       .  A
O545        C552   1.262       .  A
O546        C552   1.263       .  A
C547        C784   1.463       .  S
C548        C780   1.443       .  S
C549        C786   1.447       .  S
C550        C788   1.454       .  S
C551        C782   1.431       .  S
C552        C792   1.390       .  S
Zn553       O557   1.943       .  S
Zn553       O558   2.041       .  S
Zn553       O562   2.069       .  S
Zn553       O569   1.960       .  S
Zn554       O557   1.921       .  S
Zn554       O559   1.915       .  S
Zn554       O561   1.963       .  S
Zn554       O565   1.947       .  S
Zn555       O557   1.924       .  S
Zn555       O560   1.989       .  S
Zn555       O563   1.917       .  S
Zn555       O566   1.920       .  S
Zn556       O557   1.967       .  S
Zn556       O564   2.126       .  S
Zn556       O567   2.150       .  S
Zn556       O568   2.120       .  S
O558        C570   1.272       .  A
O559        C571   1.261       .  A
O560        C572   1.264       .  A
O561        C570   1.262       .  A
O562        C572   1.275       .  A
O563        C571   1.260       .  A
O564        C573   1.286       .  A
O565        C574   1.260       .  A
O566        C573   1.259       .  A
O567        C574   1.287       .  A
O568        C575   1.294       .  A
O569        C575   1.272       .  A
C570        C777   1.429       .  S
C571        C769   1.377       .  S
C572        C773   1.446       .  S
C573        C771   1.444       .  S
C574        C775   1.459       .  S
C575        C826   1.436       .  S
Zn576       O580   1.952       .  S
Zn576       O581   2.019       .  S
Zn576       O585   2.047       .  S
Zn576      O1520   2.102       .  S
Zn577       O580   1.944       .  S
Zn577       O582   2.019       .  S
Zn577       O584   1.996       .  S
Zn577       O588   1.939       .  S
Zn578       O580   1.941       .  S
Zn578       O583   2.048       .  S
Zn578       O586   2.060       .  S
Zn578      O1517   2.074       .  S
Zn579      O1508   1.908   1_554  S
Zn579       O587   1.993       .  S
Zn579       O590   1.937       .  S
Zn579       O591   2.016       .  S
O580      Zn1507   1.908       .  S
O581        C593   1.269       .  A
O582        C594   1.272       .  A
O583        C595   1.284       .  A
O584        C593   1.270       .  A
O585        C595   1.285       .  A
O586        C594   1.272       .  A
O587        C596   1.271       .  A
O588        C597   1.262       .  A
O589      Zn1506   2.074   1_554  S
O589        C596   1.280       .  A
O590       C1525   1.263   1_554  A
O591        C598   1.272       .  A
O592      Zn1504   2.102   1_554  S
O592        C598   1.284       .  A
C593        C778   1.432       .  S
C594        C766   1.453       .  S
C595        C779   1.443       .  S
C596        C763   1.449       .  S
C597       O1518   1.263       .  A
C597        C767   1.390   1_655  S
C598        C776   1.463       .  S
Zn599       O603   1.905       .  S
Zn599       O604   2.010       .  S
Zn599       O608   1.939       .  S
Zn599       O615   1.990       .  S
Zn600       O603   1.942       .  S
Zn600       O607   2.104       .  S
Zn600      O1533   2.020       .  S
Zn600      O1539   2.050       .  S
Zn601      O1531   1.937   1_554  S
Zn601       O606   1.940       .  S
Zn601       O609   2.009       .  S
Zn601       O612   2.030       .  S
Zn602      O1531   1.946       .  S
Zn602       O610   2.054   1_556  S
Zn602       O613   2.053   1_556  S
Zn602      O1542   2.073       .  S
O603      Zn1529   1.937       .  S
O603      Zn1530   1.946       .  S
O604        C616   1.271       .  A
O605      Zn1528   2.020   1_554  S
O605        C617   1.269       .  A
O606       C1546   1.263   1_554  A
O607        C616   1.283       .  A
O608        C618   1.264       .  A
O609        C617   1.272       .  A
O610        C619   1.272       .  A
O611      Zn1528   2.050   1_554  S
O611        C620   1.285       .  A
O612        C619   1.272       .  A
O613        C620   1.285       .  A
O614      Zn1530   2.073       .  S
O614        C621   1.282       .  A
O615        C621   1.272       .  A
C616        C760   1.466       .  S
C617        C762   1.436       .  S
C618       O1534   1.263       .  A
C618        C768   1.390       .  S
C619        C772   1.453   1_455  S
C620        C902   1.446       .  S
C621        C774   1.445       .  S
Zn622       O626   1.926       .  S
Zn622       O627   1.904       .  S
Zn622       O631   1.981       .  S
Zn622       O638   2.005       .  S
Zn623       O626   1.957       .  S
Zn623       O628   2.006       .  S
Zn623       O630   1.926       .  S
Zn623       O634   1.988       .  S
Zn624       O626   1.968       .  S
Zn624       O629   2.084       .  S
Zn624       O632   2.072       .  S
Zn624       O635   2.051       .  S
Zn625       O626   1.966       .  S
Zn625       O633   2.054       .  S
Zn625       O636   2.035       .  S
Zn625       O637   2.111       .  S
O627        C639   1.257       .  A
O628        C640   1.268       .  A
O629        C641   1.281       .  A
O630        C639   1.261       .  A
O631        C641   1.268       .  A
O632        C640   1.273       .  A
O633        C642   1.286       .  A
O634        C643   1.268       .  A
O635        C642   1.285       .  A
O636        C643   1.270       .  A
O637        C644   1.282       .  A
O638        C644   1.269       .  A
C639        C770   1.377       .  S
C640        C764   1.453       .  S
C641        C765   1.450       .  S
C642        C757   1.444       .  S
C643        C761   1.436       .  S
C644        C759   1.466       .  S
Zn645       O649   1.904       .  S
Zn645       O650   2.141       .  S
Zn645       O654   2.104       .  S
Zn645       O661   2.157       .  S
Zn646       O649   1.912       .  S
Zn646       O651   2.076       .  S
Zn646       O653   1.946       .  S
Zn646       O657   2.046       .  S
Zn647       O649   1.867       .  S
Zn647       O652   1.941       .  S
Zn647       O655   2.000       .  S
Zn647       O658   1.968       .  S
Zn648       O649   1.884       .  S
Zn648       O656   1.933       .  S
Zn648       O659   1.961       .  S
Zn648       O660   1.948       .  S
O650        C662   1.298       .  A
O651        C663   1.279       .  A
O652        C664   1.269       .  A
O653        C662   1.270       .  A
O654        C664   1.288       .  A
O655        C663   1.267       .  A
O656        C665   1.262       .  A
O657        C666   1.277       .  A
O658        C665   1.271       .  A
O659        C666   1.263       .  A
O660        C667   1.261       .  A
O661        C667   1.289       .  A
C662        C876   1.440       .  S
C663        C747   1.448       .  S
C664        C750   1.435       .  S
C665        C751   1.394       .  S
C666        C756   1.425   1_554  S
C667        C753   1.459       .  S
Zn668       O672   1.911       .  S
Zn668       O673   2.124       .  S
Zn668       O677   2.130       .  S
Zn668       O684   2.146       .  S
Zn669       O672   1.917       .  S
Zn669       O674   2.084       .  S
Zn669       O676   1.950       .  S
Zn669       O680   2.043       .  S
Zn670       O672   1.908       .  S
Zn670       O675   1.921       .  S
Zn670       O678   1.988       .  S
Zn670       O681   1.937       .  S
Zn671       O672   1.875       .  S
Zn671       O679   1.942       .  S
Zn671       O682   1.957       .  S
Zn671       O683   1.971       .  S
O673        C685   1.296       .  A
O674        C686   1.279       .  A
O675        C687   1.262       .  A
O676        C685   1.271       .  A
O677        C687   1.288       .  A
O678        C686   1.266       .  A
O679        C688   1.268       .  A
O680        C689   1.275       .  A
O681        C688   1.261       .  A
O682        C689   1.262       .  A
O683        C690   1.267       .  A
O684        C690   1.289       .  A
C685        C849   1.435       .  S
C686        C742   1.450       .  S
C687        C743   1.442       .  S
C688        C746   1.389       .  S
C689        C755   1.425       .  S
C690        C754   1.461       .  S
Zn691       O695   1.919       .  S
Zn691       O696   1.963       .  S
Zn691       O700   2.049       .  S
Zn691       O707   2.038       .  S
Zn692       O695   1.942       .  S
Zn692       O697   2.117       .  S
Zn692       O699   2.124       .  S
Zn692       O703   2.159       .  S
Zn693       O695   1.889       .  S
Zn693       O698   2.007       .  S
Zn693       O701   1.923       .  S
Zn693       O704   1.946       .  S
Zn694       O695   1.921       .  S
Zn694       O702   1.937       .  S
Zn694       O705   1.939       .  S
Zn694       O706   1.956       .  S
O696        C708   1.272       .  A
O697        C709   1.286       .  A
O698        C710   1.269       .  A
O699        C708   1.295       .  A
O700        C710   1.275       .  A
O701        C709   1.261       .  A
O702        C711   1.264       .  A
O703        C712   1.288       .  A
O704        C711   1.266       .  A
O705        C712   1.258       .  A
O706        C713   1.261       .  A
O707        C713   1.274       .  A
C708        C807   1.441       .  S
C709        C748   1.440       .  S
C710        C749   1.442       .  S
C711        C745   1.391       .  S
C712        C738   1.462       .  S
C713        C740   1.422       .  S
Zn714       O718   1.962       .  S
Zn714       O719   2.048       .  S
Zn714       O723   2.004       .  S
Zn714       O730   2.094       .  S
Zn715       O718   1.950       .  S
Zn715       O720   2.059       .  S
Zn715       O722   2.051       .  S
Zn715       O726   2.043       .  S
Zn716       O718   1.922       .  S
Zn716       O721   1.980       .  S
Zn716       O724   2.010       .  S
Zn716       O727   1.937       .  S
Zn717       O718   1.948       .  S
Zn717       O725   1.940       .  S
Zn717       O728   2.002       .  S
Zn717       O729   2.022       .  S
O719        C731   1.284       .  A
O720        C732   1.274       .  A
O721        C733   1.268       .  A
O722        C731   1.284       .  A
O723        C733   1.268       .  A
O724        C732   1.269       .  A
O725        C734   1.258       .  A
O726        C735   1.275       .  A
O727        C734   1.264       .  A
O728        C735   1.274       .  A
O729        C736   1.272       .  A
O730        C736   1.280       .  A
C731        C758   1.445       .  S
C732        C744   1.450       .  S
C733        C739   1.423       .  S
C734        C752   1.392       .  S
C735        C741   1.447   1_554  S
C736        C737   1.467       .  S
C737       C1666   1.225   1_554  T
C738       C1665   1.225       .  T
C739        C740   1.199       .  T
C741       C1670   1.215       .  T
C742       C1669   1.215       .  T
C743        C744   1.214       .  T
C745        C746   1.177       .  T
C747       C1676   1.213   1_554  T
C748       C1675   1.213       .  T
C749        C750   1.209       .  T
C751        C752   1.180       .  T
C753        C754   1.222       .  T
C755       C1684   1.201       .  T
C756       C1683   1.201       .  T
C757        C758   1.212       .  T
C759        C760   1.226       .  T
C761        C762   1.207       .  T
C763        C764   1.216   1_655  T
C765        C766   1.216   1_455  T
C767        C768   1.178       .  T
C769        C770   1.172   1_655  T
C771        C772   1.215       .  T
C773        C774   1.213   1_655  T
C775        C776   1.223       .  T
C777        C778   1.203       .  T
C779        C780   1.211       .  T
C781       C1710   1.203       .  T
C782       C1709   1.203       .  T
C783        C784   1.223       .  T
C785        C786   1.215       .  T
C787       C1716   1.217       .  T
C788       C1715   1.217       .  T
C789        C790   1.174       .  T
C791        C792   1.178       .  T
C793        C794   1.217       .  T
C795       C1724   1.212       .  T
C796       C1723   1.212   1_554  T
C797       C1726   1.224       .  T
C798       C1725   1.224   1_554  T
C799        C800   1.207       .  T
C801        C802   1.211       .  T
C803        C804   1.226       .  T
C805        C806   1.198       .  T
C807        C808   1.211       .  T
C809        C810   1.213       .  T
C811        C812   1.208       .  T
C813        C814   1.179       .  T
C815        C816   1.215       .  T
C817        C818   1.214       .  T
C819        C820   1.180       .  T
C821        C822   1.223       .  T
C823        C824   1.201       .  T
C825        C826   1.210       .  T
C827        C828   1.212       .  T
C829       C1758   1.222       .  T
C830       C1757   1.222       .  T
C831        C832   1.203       .  T
C833       C1762   1.215   1_554  T
C834       C1761   1.215       .  T
C835        C836   1.213       .  T
C837        C838   1.181       .  T
C839        C840   1.180       .  T
C841       C1770   1.210       .  T
C842       C1769   1.210       .  T
C843        C844   1.211       .  T
C845       C1774   1.204   1_554  T
C846       C1773   1.204       .  T
C847        C848   1.221       .  T
C849        C850   1.208       .  T
C851        C852   1.203   1_565  T
C853        C854   1.222   1_565  T
C855        C856   1.208       .  T
C857        C858   1.215   1_655  T
C859        C860   1.217   1_455  T
C861        C862   1.174   1_465  T
C863        C864   1.208       .  T
C865        C866   1.216       .  T
C867        C868   1.211   1_455  T
C869        C870   1.178       .  T
C871        C872   1.224   1_545  T
C873        C874   1.207   1_565  T
C875        C876   1.212       .  T
C877        C878   1.222   1_565  T
C879        C880   1.198   1_565  T
C881        C882   1.211       .  T
C883        C884   1.212       .  T
C885        C886   1.215       .  T
C887        C888   1.182       .  T
C889        C890   1.212       .  T
C891        C892   1.215       .  T
C893        C894   1.211       .  T
C895        C896   1.182       .  T
C897        C898   1.226   1_545  T
C899        C900   1.201   1_565  T
C901        C902   1.212       .  T
C903        C904   1.212       .  T
C905        C906   1.222       .  T
C907       C1836   1.201   1_554  T
C908       C1835   1.201       .  T
C909        C910   1.213       .  T
C911        C912   1.215       .  T
C913       C1842   1.215       .  T
C914       C1841   1.215   1_554  T
C915        C916   1.177       .  T
C917        C918   1.215       .  T
C919        C920   1.211       .  T
C921       C1850   1.214       .  T
C922       C1849   1.214       .  T
C923        C924   1.181       .  T
C925       C1854   1.228       .  T
C926       C1853   1.228       .  T
C927        C928   1.201       .  T
Zn929       O933   1.916       .  S
Zn929       O934   2.038       .  S
Zn929       O938   2.054       .  S
Zn929       O945   1.967       .  S
Zn930       O933   1.922       .  S
Zn930       O935   1.943       .  S
Zn930       O937   1.963       .  S
Zn930       O941   1.953       .  S
Zn931       O933   1.887       .  S
Zn931       O936   2.014       .  S
Zn931       O939   1.964       .  S
Zn931       O942   1.951       .  S
Zn932       O933   1.920       .  S
Zn932       O940   2.114       .  S
Zn932       O943   2.169       .  S
Zn932       O944   2.143       .  S
O934        C946   1.275       .  A
O935        C947   1.263       .  A
O936        C948   1.269       .  A
O937        C946   1.263       .  A
O938        C948   1.276       .  A
O939        C947   1.270       .  A
O940        C949   1.287       .  A
O941        C950   1.260       .  A
O942        C949   1.267       .  A
O943        C950   1.290       .  A
O944        C951   1.297       .  A
O945        C951   1.272       .  A
C946       C1855   1.425       .  S
C947       C1852   1.396       .  S
C948       C1848   1.446       .  S
C949       C1850   1.444       .  S
C950       C1853   1.467       .  S
C951       C1845   1.447       .  S
Zn952       O956   1.948       .  S
Zn952       O957   1.921       .  S
Zn952       O961   2.017       .  S
Zn952       O968   1.991       .  S
Zn953       O956   1.934       .  S
Zn953       O958   1.988       .  S
Zn953       O960   1.936       .  S
Zn953       O964   2.018       .  S
Zn954       O956   1.964       .  S
Zn954       O959   2.107       .  S
Zn954       O962   2.003       .  S
Zn954       O965   2.059       .  S
Zn955       O956   1.956       .  S
Zn955       O963   2.052       .  S
Zn955       O966   2.058       .  S
Zn955       O967   2.054       .  S
O957        C969   1.256       .  A
O958        C970   1.269       .  A
O959        C971   1.281       .  A
O960        C969   1.264       .  A
O961        C971   1.271       .  A
O962        C970   1.267       .  A
O963        C972   1.284       .  A
O964        C973   1.270       .  A
O965        C972   1.285       .  A
O966        C973   1.273       .  A
O967        C974   1.276       .  A
O968        C974   1.271       .  A
C969       C1843   1.387       .  S
C970       C1856   1.426       .  S
C971       C1854   1.471       .  S
C972       C1837   1.447       .  S
C973       C1840   1.452       .  S
C974       C1841   1.446       .  S
Zn975       O979   1.881       .  S
Zn975       O980   1.949       .  S
Zn975       O984   1.964       .  S
Zn975       O991   1.928       .  S
Zn976       O979   1.911       .  S
Zn976       O981   2.135       .  S
Zn976       O983   2.160       .  S
Zn976       O987   2.120       .  S
Zn977       O979   1.917       .  S
Zn977       O982   2.041       .  S
Zn977       O985   1.964       .  S
Zn977       O988   2.076       .  S
Zn978       O979   1.880       .  S
Zn978       O986   1.995       .  S
Zn978       O989   1.923       .  S
Zn978       O990   1.948       .  S
O980        C992   1.262       .  A
O981        C993   1.298       .  A
O982        C994   1.274       .  A
O983        C992   1.290       .  A
O984        C994   1.262       .  A
O985        C993   1.274       .  A
O986        C995   1.266       .  A
O987        C996   1.289       .  A
O988        C995   1.278       .  A
O989        C996   1.265       .  A
O990        C997   1.267       .  A
O991        C997   1.263       .  A
C992       C1834   1.460       .  S
C993       C1831   1.441       .  S
C994       C1836   1.425       .  S
C995       C1849   1.449       .  S
C996       C1847   1.437       .  S
C997       C1844   1.387       .  S
Zn998      O1002   1.939       .  S
Zn998      O1003   1.950       .  S
Zn998      O1007   1.989       .  S
Zn998      O1014   1.929       .  S
Zn999      O1002   1.899       .  S
Zn999      O1004   1.968       .  S
Zn999      O1006   1.945       .  S
Zn999      O1010   1.974       .  S
Zn1000     O1002   1.923       .  S
Zn1000     O1005   2.083       .  S
Zn1000     O1008   2.035       .  S
Zn1000     O1011   1.967       .  S
Zn1001     O1002   1.935       .  S
Zn1001     O1009   2.127       .  S
Zn1001     O1012   2.141       .  S
Zn1001     O1013   2.119       .  S
O1003      C1015   1.262       .  A
O1004      C1016   1.265       .  A
O1005      C1017   1.278       .  A
O1006      C1015   1.268       .  A
O1007      C1017   1.265       .  A
O1008      C1016   1.273       .  A
O1009      C1018   1.295       .  A
O1010      C1019   1.266       .  A
O1011      C1018   1.273       .  A
O1012      C1019   1.288       .  A
O1013      C1020   1.285       .  A
O1014      C1020   1.261       .  A
C1015      C1851   1.395       .  S
C1016      C1835   1.427       .  S
C1017      C1842   1.450       .  S
C1018      C1829   1.442       .  S
C1019      C1833   1.461       .  S
C1020      C1839   1.444       .  S
Zn1021     O1025   1.953       .  S
Zn1021     O1026   2.010       .  S
Zn1021     O1030   2.089       .  S
Zn1021     O1037   2.051       .  S
Zn1022     O1025   1.931       .  S
Zn1022     O1027   1.947       .  S
Zn1022     O1029   1.984       .  S
Zn1022     O1033   2.018       .  S
Zn1023     O1025   1.945       .  S
Zn1023     O1028   2.023       .  S
Zn1023     O1031   1.947       .  S
Zn1023     O1034   1.988       .  S
Zn1024     O1025   1.961       .  S
Zn1024     O1032   2.059       .  S
Zn1024     O1035   2.067       .  S
Zn1024     O1036   2.048       .  S
O1026      C1038   1.268       .  A
O1027      C1039   1.265       .  A
O1028      C1040   1.273       .  A
O1029      C1038   1.269       .  A
O1030      C1040   1.279       .  A
O1031      C1039   1.260       .  A
O1032      C1041   1.278       .  A
O1033      C1042   1.270       .  A
O1034      C1041   1.271       .  A
O1035      C1042   1.275       .  A
O1036      C1043   1.283       .  A
O1037      C1043   1.284       .  A
C1038      C1827   1.426       .  S
C1039      C1823   1.397   1_565  S
C1040      C1826   1.467       .  S
C1041      C1821   1.441       .  S
C1042      C1819   1.453       .  S
C1043      C1817   1.445       .  S
Zn1044     O1048   1.930       .  S
Zn1044     O1049   1.988       .  S
Zn1044     O1053   2.021       .  S
Zn1044     O1060   1.947       .  S
Zn1045     O1048   1.951       .  S
Zn1045     O1050   2.050       .  S
Zn1045     O1052   2.006       .  S
Zn1046     O1048   1.958       .  S
Zn1046     O1051   2.061       .  S
Zn1046     O1054   2.047       .  S
Zn1047     O1055   1.989       .  S
Zn1047     O1058   2.021       .  S
Zn1047     O1059   1.945       .  S
O1049      C1061   1.269       .  A
O1050      C1062   1.284       .  A
O1051      C1063   1.274       .  A
O1052      C1061   1.267       .  A
O1053      C1063   1.270       .  A
O1054      C1062   1.283       .  A
O1055      C1064   1.271       .  A
O1056      C1065   1.279       .  A
O1057      C1064   1.280       .  A
O1058      C1065   1.273       .  A
O1060      C1066   1.265   1_556  A
C1061      C1828   1.426       .  S
C1062      C1809   1.445       .  S
C1063      C1813   1.452       .  S
C1064      C1811   1.443       .  S
C1065      C1825   1.467       .  S
C1066      C1815   1.397   1_545  S
Zn1067     O1072   1.954   1_556  S
Zn1067     O1076   1.937       .  S
Zn1068     O1073   1.969       .  S
Zn1068     O1075   1.947   1_556  S
Zn1069     O1074   2.129       .  S
Zn1069     O1077   2.147       .  S
Zn1069     O1080   2.141       .  S
Zn1070     O1071   1.914       .  S
Zn1070     O1078   1.939       .  S
Zn1070     O1081   2.023       .  S
Zn1070     O1082   2.060       .  S
O1072      C1084   1.263       .  A
O1073      C1085   1.267       .  A
O1074      C1086   1.288       .  A
O1075      C1084   1.268       .  A
O1076      C1086   1.264       .  A
O1077      C1085   1.290       .  A
O1078      C1087   1.268       .  A
O1079      C1088   1.264       .  A
O1081      C1088   1.272       .  A
O1082      C1089   1.277       .  A
O1083      C1089   1.268       .  A
C1084      C1816   1.396       .  S
C1085      C1805   1.460       .  S
C1086      C1820   1.446       .  S
C1087      C1803   1.439       .  S
C1088      C1807   1.423       .  S
C1089      C1822   1.444       .  S
Zn1090     O1094   1.916       .  S
Zn1090     O1095   1.938       .  S
Zn1090     O1099   1.996       .  S
Zn1090     O1106   1.957       .  S
Zn1091     O1094   1.924       .  S
Zn1091     O1096   2.147       .  S
Zn1091     O1098   2.126       .  S
Zn1091     O1102   2.149       .  S
Zn1092     O1094   1.916       .  S
Zn1092     O1097   2.064       .  S
Zn1092     O1100   1.954       .  S
Zn1092     O1103   2.026       .  S
Zn1093     O1094   1.885       .  S
Zn1093     O1101   1.963       .  S
Zn1093     O1104   1.965       .  S
Zn1093     O1105   1.945       .  S
O1095      C1107   1.265       .  A
O1096      C1108   1.298       .  A
O1097      C1109   1.277       .  A
O1098      C1107   1.288       .  A
O1099      C1109   1.268       .  A
O1100      C1108   1.270       .  A
O1101      C1110   1.264       .  A
O1102      C1111   1.290       .  A
O1103      C1110   1.273       .  A
O1104      C1111   1.266       .  A
O1105      C1112   1.267       .  A
O1106      C1112   1.264       .  A
C1107      C1814   1.445       .  S
C1108      C1846   1.446       .  S
C1109      C1812   1.445       .  S
C1110      C1808   1.422       .  S
C1111      C1806   1.460       .  S
C1112      C1824   1.397       .  S
Zn1113     O1117   1.945       .  S
Zn1113     O1118   2.028       .  S
Zn1113     O1122   2.093       .  S
Zn1113     O1129   2.040       .  S
Zn1114     O1117   1.933       .  S
Zn1114     O1119   1.940       .  S
Zn1114     O1121   1.999       .  S
Zn1114     O1125   2.019       .  S
Zn1115     O1117   1.910       .  S
Zn1115     O1120   2.012       .  S
Zn1115     O1123   1.940       .  S
Zn1115     O1126   1.989       .  S
Zn1116     O1117   1.950       .  S
Zn1116     O1124   2.063       .  S
Zn1116     O1127   2.069       .  S
Zn1116     O1128   2.043       .  S
O1118      C1130   1.270       .  A
O1119      C1131   1.263       .  A
O1120      C1132   1.271       .  A
O1121      C1130   1.270       .  A
O1122      C1132   1.280       .  A
O1123      C1131   1.264       .  A
O1124      C1133   1.280       .  A
O1125      C1134   1.271       .  A
O1126      C1133   1.271       .  A
O1127      C1134   1.274       .  A
O1128      C1135   1.284       .  A
O1129      C1135   1.284       .  A
C1130      C1801   1.436       .  S
C1131      C1797   1.391   1_565  S
C1132      C1800   1.463       .  S
C1133      C1796   1.442       .  S
C1134      C1793   1.454   1_655  S
C1135      C1791   1.439       .  S
Zn1136     O1141   2.032       .  S
Zn1136     O1152   2.042       .  S
Zn1137     O1142   1.934       .  S
Zn1137     O1144   1.995       .  S
Zn1137     O1148   2.012       .  S
Zn1138     O1140   1.939       .  S
Zn1138     O1143   2.003       .  S
Zn1138     O1146   1.908       .  S
Zn1138     O1149   1.985       .  S
Zn1139     O1150   2.063       .  S
Zn1139     O1151   2.039       .  S
O1141      C1153   1.270       .  A
O1143      C1155   1.269       .  A
O1144      C1153   1.268       .  A
O1145      C1155   1.280       .  A
O1146      C1154   1.256       .  A
O1147      C1156   1.280       .  A
O1148      C1157   1.269       .  A
O1149      C1156   1.268       .  A
O1150      C1157   1.272       .  A
O1151      C1158   1.283       .  A
O1152      C1158   1.284       .  A
C1153      C1802   1.436       .  S
C1154      C1790   1.381       .  S
C1155      C1799   1.463       .  S
C1156      C1788   1.451       .  S
C1157      C1785   1.451       .  S
C1158      C1783   1.438       .  S
Zn1159     O1163   1.907       .  S
Zn1159     O1168   1.995       .  S
Zn1159     O1175   1.928       .  S
Zn1160     O1165   2.126       .  S
Zn1160     O1167   2.135       .  S
Zn1160     O1171   2.151       .  S
Zn1161     O1163   1.932       .  S
Zn1161     O1166   2.057       .  S
Zn1161     O1169   1.948       .  S
Zn1161     O1172   2.036       .  S
Zn1162     O1163   1.903       .  S
Zn1162     O1170   1.976       .  S
Zn1162     O1174   1.923       .  S
O1164      C1176   1.262       .  A
O1166      C1178   1.274       .  A
O1167      C1176   1.288       .  A
O1168      C1178   1.265       .  A
O1169      C1177   1.271       .  A
O1170      C1179   1.264       .  A
O1171      C1180   1.288       .  A
O1172      C1179   1.272       .  A
O1173      C1180   1.262       .  A
O1174      C1181   1.263       .  A
O1175      C1181   1.263       .  A
C1176      C1794   1.446       .  S
C1177      C1778   1.435       .  S
C1178      C1795   1.443       .  S
C1179      C1779   1.430       .  S
C1180      C1781   1.458       .  S
C1181      C1789   1.381       .  S
Zn1182     O1186   1.943       .  S
Zn1182     O1187   2.056       .  S
Zn1182     O1191   2.065       .  S
Zn1182     O1198   2.077       .  S
Zn1183     O1186   1.954       .  S
Zn1183     O1188   2.021       .  S
Zn1183     O1190   2.050       .  S
Zn1183     O1194   2.106       .  S
Zn1184     O1186   1.946       .  S
Zn1184     O1189   2.016       .  S
Zn1184     O1192   1.993       .  S
Zn1184     O1195   1.941       .  S
Zn1185     O1186   1.908       .  S
Zn1185     O1193   1.936       .  S
Zn1185     O1196   2.008       .  S
Zn1185     O1197   1.981       .  S
O1187      C1199   1.285       .  A
O1188      C1200   1.270       .  A
O1189      C1201   1.271       .  A
O1190      C1199   1.285       .  A
O1191      C1201   1.273       .  A
O1192      C1200   1.270       .  A
O1193      C1202   1.263       .  A
O1194      C1203   1.284       .  A
O1195      C1202   1.262       .  A
O1196      C1203   1.271       .  A
O1197      C1204   1.269       .  A
O1198      C1204   1.280       .  A
C1199      C1838   1.447       .  S
C1200      C1780   1.431       .  S
C1201      C1787   1.454       .  S
C1202      C1798   1.390   1_455  S
C1203      C1782   1.461       .  S
C1204      C1786   1.447       .  S
Zn1205     O1209   1.928       .  S
Zn1205     O1210   2.126       .  S
Zn1205     O1214   2.094       .  S
Zn1205     O1221   2.115       .  S
Zn1206     O1209   1.937       .  S
Zn1206     O1211   1.945       .  S
Zn1206     O1213   1.963       .  S
Zn1206     O1217   1.974       .  S
Zn1207     O1209   1.889       .  S
Zn1207     O1212   1.954       .  S
Zn1207     O1215   1.952       .  S
Zn1207     O1218   2.004       .  S
Zn1208     O1209   1.917       .  S
Zn1208     O1216   2.052       .  S
Zn1208     O1219   2.037       .  S
Zn1208     O1220   1.973       .  S
O1210      C1222   1.285       .  A
O1211      C1223   1.262       .  A
O1212      C1224   1.267       .  A
O1213      C1222   1.263       .  A
O1214      C1224   1.284       .  A
O1215      C1223   1.268       .  A
O1216      C1225   1.275       .  A
O1217      C1226   1.266       .  A
O1218      C1225   1.268       .  A
O1219      C1226   1.274       .  A
O1220      C1227   1.273       .  A
O1221      C1227   1.293       .  A
C1222      C1775   1.457       .  S
C1223      C1767   1.394       .  S
C1224      C1772   1.439       .  S
C1225      C1769   1.443       .  S
C1226      C1774   1.430       .  S
C1227      C1810   1.441       .  S
Zn1228     O1232   1.939       .  S
Zn1228     O1233   2.040       .  S
Zn1228     O1237   2.052       .  S
Zn1228     O1244   2.050       .  S
Zn1229     O1232   1.949       .  S
Zn1229     O1234   2.093       .  S
Zn1229     O1236   2.037       .  S
Zn1229     O1240   2.015       .  S
Zn1230     O1232   1.915       .  S
Zn1230     O1235   1.990       .  S
Zn1230     O1238   2.015       .  S
Zn1230     O1241   1.942       .  S
Zn1231     O1232   1.941       .  S
Zn1231     O1239   1.951       .  S
Zn1231     O1242   2.004       .  S
Zn1231     O1243   2.021       .  S
O1233      C1245   1.283       .  A
O1234      C1246   1.282       .  A
O1235      C1247   1.271       .  A
O1236      C1245   1.283       .  A
O1237      C1247   1.277       .  A
O1238      C1246   1.272       .  A
O1239      C1248   1.264       .  A
O1240      C1249   1.270       .  A
O1241      C1248   1.262       .  A
O1242      C1249   1.271       .  A
O1243      C1250   1.272       .  A
O1244      C1250   1.271       .  A
C1245      C1784   1.438       .  S
C1246      C1776   1.460       .  S
C1247      C1763   1.443       .  S
C1248      C1766   1.396       .  S
C1249      C1773   1.432       .  S
C1250      C1761   1.451       .  S
Zn1251     O1255   1.918       .  S
Zn1251     O1256   2.051       .  S
Zn1251     O1260   1.970       .  S
Zn1251     O1267   2.032       .  S
Zn1252     O1255   1.892       .  S
Zn1252     O1257   1.954       .  S
Zn1252     O1259   2.009       .  S
Zn1252     O1263   1.955       .  S
Zn1253     O1255   1.929       .  S
Zn1253     O1258   2.117       .  S
Zn1253     O1261   2.092       .  S
Zn1253     O1264   2.132       .  S
Zn1254     O1255   1.939       .  S
Zn1254     O1262   1.966       .  S
Zn1254     O1265   1.947       .  S
Zn1254     O1266   1.974       .  S
O1256      C1268   1.275       .  A
O1257      C1269   1.267       .  A
O1258      C1270   1.293       .  A
O1259      C1268   1.268       .  A
O1260      C1270   1.273       .  A
O1261      C1269   1.284       .  A
O1262      C1271   1.263       .  A
O1263      C1272   1.269       .  A
O1264      C1271   1.285       .  A
O1265      C1272   1.262       .  A
O1266      C1273   1.266       .  A
O1267      C1273   1.273       .  A
C1268      C1771   1.444       .  S
C1269      C1770   1.439       .  S
C1270      C1755   1.441       .  S
C1271      C1757   1.459       .  S
C1272      C1765   1.395       .  S
C1273      C1759   1.428       .  S
Zn1274     O1278   1.946       .  S
Zn1274     O1279   2.099       .  S
Zn1274     O1283   2.007       .  S
Zn1274     O1290   2.042       .  S
Zn1275     O1278   1.910       .  S
Zn1275     O1280   1.939       .  S
Zn1275     O1282   2.014       .  S
Zn1275     O1286   1.992       .  S
Zn1276     O1278   1.942       .  S
Zn1276     O1281   2.005       .  S
Zn1276     O1284   1.949       .  S
Zn1276     O1287   2.020       .  S
Zn1277     O1278   1.936       .  S
Zn1277     O1285   2.040       .  S
Zn1277     O1288   2.060       .  S
Zn1277     O1289   2.041       .  S
O1279      C1291   1.284       .  A
O1280      C1292   1.262       .  A
O1281      C1293   1.271       .  A
O1282      C1291   1.272       .  A
O1283      C1293   1.268       .  A
O1284      C1292   1.264       .  A
O1285      C1294   1.269       .  A
O1286      C1295   1.271       .  A
O1287      C1294   1.272       .  A
O1288      C1295   1.278       .  A
O1289      C1296   1.283       .  A
O1290      C1296   1.284       .  A
C1291      C1758   1.462       .  S
C1292      C1768   1.395       .  S
C1293      C1760   1.431       .  S
C1294      C1764   1.447       .  S
C1295      C1762   1.447       .  S
C1296      C1753   1.441       .  S
Zn1297     O1301   1.919       .  S
Zn1297     O1302   2.040       .  S
Zn1297     O1306   1.961       .  S
Zn1297     O1313   2.085       .  S
Zn1298     O1301   1.888       .  S
Zn1298     O1305   1.965       .  S
Zn1298     O1309   1.946       .  S
Zn1299     O1304   2.130       .  S
Zn1299     O1307   2.143       .  S
Zn1299     O1310   2.122       .  S
Zn1300     O1301   1.925       .  S
Zn1300     O1311   1.944       .  S
Zn1300     O1312   1.989       .  S
O1302      C1314   1.274       .  A
O1303      C1315   1.268       .  A
O1305      C1314   1.264       .  A
O1306      C1316   1.272       .  A
O1307      C1315   1.289       .  A
O1308      C1317   1.262       .  A
O1309      C1318   1.268       .  A
O1310      C1317   1.287       .  A
O1311      C1318   1.262       .  A
O1312      C1319   1.266       .  A
O1313      C1319   1.279       .  A
C1314      C1752   1.427       .  S
C1315      C1749   1.462       .  S
C1316      C1832   1.441       .  S
C1317      C1745   1.443       .  S
C1318      C1748   1.393       .  S
C1319      C1743   1.450       .  S
Zn1320     O1324   1.886       .  S
Zn1320     O1325   1.963       .  S
Zn1320     O1329   1.932       .  S
Zn1320     O1336   1.953       .  S
Zn1321     O1324   1.914       .  S
Zn1321     O1326   2.073       .  S
Zn1321     O1328   2.043       .  S
Zn1321     O1332   1.955       .  S
Zn1322     O1324   1.873       .  S
Zn1322     O1327   1.963       .  S
Zn1322     O1330   1.998       .  S
Zn1322     O1333   1.939       .  S
Zn1323     O1324   1.909       .  S
Zn1323     O1331   2.099       .  S
Zn1323     O1334   2.132       .  S
Zn1323     O1335   2.157       .  S
O1325      C1337   1.263       .  A
O1326      C1338   1.278       .  A
O1327      C1339   1.270       .  A
O1328      C1337   1.275       .  A
O1329      C1339   1.262       .  A
O1330      C1338   1.266       .  A
O1331      C1340   1.287       .  A
O1332      C1341   1.272       .  A
O1333      C1340   1.268       .  A
O1334      C1341   1.297       .  A
O1335      C1342   1.289       .  A
O1336      C1342   1.262       .  A
C1337      C1751   1.426       .  S
C1338      C1737   1.447       .  S
C1339      C1741   1.393       .  S
C1340      C1739   1.434       .  S
C1341      C1736   1.439       .  S
C1342      C1750   1.461       .  S
Zn1343     O1347   1.951       .  S
Zn1343     O1348   2.052       .  S
Zn1343     O1352   2.055       .  S
Zn1343     O1359   2.048       .  S
Zn1344     O1347   1.963       .  S
Zn1344     O1349   1.993       .  S
Zn1344     O1351   2.046       .  S
Zn1344     O1355   2.097       .  S
Zn1345     O1347   1.927       .  S
Zn1345     O1350   2.017       .  S
Zn1345     O1353   1.985       .  S
Zn1345     O1356   1.938       .  S
Zn1346     O1347   1.949       .  S
Zn1346     O1354   1.934       .  S
Zn1346     O1357   2.023       .  S
Zn1346     O1358   1.999       .  S
O1348      C1360   1.284       .  A
O1349      C1361   1.266       .  A
O1350      C1362   1.269       .  A
O1351      C1360   1.283       .  A
O1352      C1362   1.273       .  A
O1353      C1361   1.268       .  A
O1354      C1363   1.258       .  A
O1355      C1364   1.280       .  A
O1356      C1363   1.265       .  A
O1357      C1364   1.272       .  A
O1358      C1365   1.273       .  A
O1359      C1365   1.276       .  A
C1360      C1756   1.445       .  S
C1361      C1734   1.421       .  S
C1362      C1746   1.451       .  S
C1363      C1742   1.391       .  S
C1364      C1731   1.468       .  S
C1365      C1744   1.447       .  S
Zn1366     O1370   1.921       .  S
Zn1366     O1371   1.941   1_556  S
Zn1366     O1382   1.946       .  S
Zn1367     O1370   1.885       .  S
Zn1367     O1374   1.959       .  S
Zn1367     O1378   1.941       .  S
Zn1368     O1373   2.027       .  S
Zn1368     O1376   2.037       .  S
Zn1368     O1379   1.954       .  S
Zn1369     O1370   1.925       .  S
Zn1369     O1377   2.132       .  S
Zn1369     O1380   2.111       .  S
Zn1369     O1381   2.162       .  S
O1371      C1383   1.264   1_554  A
O1372      C1384   1.270       .  A
O1373      C1385   1.273       .  A
O1374      C1383   1.269       .  A
O1375      C1385   1.262       .  A
O1376      C1384   1.274       .  A
O1378      C1387   1.265       .  A
O1379      C1386   1.270       .  A
O1380      C1387   1.286       .  A
O1381      C1388   1.289       .  A
O1382      C1388   1.259       .  A
C1383      C1747   1.394       .  S
C1384      C1740   1.441       .  S
C1385      C1733   1.420       .  S
C1386      C1729   1.441       .  S
C1387      C1738   1.441       .  S
C1388      C1732   1.464       .  S
Zn1389     O1393   1.949       .  S
Zn1389     O1394   2.050       .  S
Zn1389     O1398   2.030       .  S
Zn1389     O1405   2.098       .  S
Zn1390     O1393   1.956       .  S
Zn1390     O1395   2.073       .  S
Zn1390     O1397   2.053       .  S
Zn1390     O1401   2.069       .  S
Zn1391     O1393   1.935       .  S
Zn1391     O1396   1.997       .  S
Zn1391     O1399   2.019       .  S
Zn1391     O1402   1.943       .  S
Zn1392     O1393   1.917       .  S
Zn1392     O1400   1.937       .  S
Zn1392     O1403   1.985       .  S
Zn1392     O1404   2.010       .  S
O1394      C1406   1.285       .  A
O1395      C1407   1.275       .  A
O1396      C1408   1.270       .  A
O1397      C1406   1.285       .  A
O1398      C1408   1.270       .  A
O1399      C1407   1.271       .  A
O1400      C1409   1.262       .  A
O1401      C1410   1.280       .  A
O1402      C1409   1.263       .  A
O1403      C1410   1.270       .  A
O1404      C1411   1.271       .  A
O1405      C1411   1.281       .  A
C1406      C1818   1.444       .  S
C1407      C1722   1.455       .  S
C1408      C1728   1.436       .  S
C1409      C1719   1.391       .  S
C1410      C1723   1.443       .  S
C1411      C1725   1.464       .  S
Zn1412     O1416   1.942       .  S
Zn1412     O1417   1.987       .  S
Zn1412     O1421   2.004       .  S
Zn1412     O1428   1.910       .  S
Zn1413     O1416   1.971       .  S
Zn1413     O1418   2.041       .  S
Zn1413     O1420   2.078       .  S
Zn1413     O1424   2.063       .  S
Zn1414     O1416   1.972       .  S
Zn1414     O1419   2.103       .  S
Zn1414     O1422   2.042       .  S
Zn1414     O1425   2.034       .  S
Zn1415     O1416   1.950       .  S
Zn1415     O1423   1.993       .  S
Zn1415     O1426   2.011       .  S
Zn1415     O1427   1.935       .  S
O1417      C1429   1.269       .  A
O1418      C1430   1.283       .  A
O1419      C1431   1.280       .  A
O1420      C1429   1.279       .  A
O1421      C1431   1.269       .  A
O1422      C1430   1.284       .  A
O1423      C1432   1.268       .  A
O1424      C1433   1.272       .  A
O1425      C1432   1.270       .  A
O1426      C1433   1.269       .  A
O1427      C1434   1.263       .  A
O1428      C1434   1.257       .  A
C1429      C1715   1.451       .  S
C1430      C1792   1.438       .  S
C1431      C1726   1.464       .  S
C1432      C1727   1.436       .  S
C1433      C1713   1.451       .  S
C1434      C1717   1.383       .  S
Zn1435     O1439   1.904       .  S
Zn1435     O1440   1.930       .  S
Zn1435     O1444   1.996       .  S
Zn1435     O1451   1.930       .  S
Zn1436     O1439   1.941       .  S
Zn1436     O1441   2.138       .  S
Zn1436     O1443   2.139       .  S
Zn1436     O1447   2.156       .  S
Zn1437     O1439   1.933       .  S
Zn1437     O1442   2.059       .  S
Zn1437     O1445   1.950       .  S
Zn1437     O1448   2.038       .  S
Zn1438     O1439   1.907       .  S
Zn1438     O1446   1.975       .  S
Zn1438     O1449   1.948       .  S
Zn1438     O1450   1.926       .  S
O1440      C1452   1.262       .  A
O1441      C1453   1.298       .  A
O1442      C1454   1.274       .  A
O1443      C1452   1.289       .  A
O1444      C1454   1.265       .  A
O1445      C1453   1.271       .  A
O1446      C1455   1.264       .  A
O1447      C1456   1.289       .  A
O1448      C1455   1.272       .  A
O1449      C1456   1.262       .  A
O1450      C1457   1.263       .  A
O1451      C1457   1.264       .  A
C1452      C1721   1.447       .  S
C1453      C1730   1.439       .  S
C1454      C1724   1.444       .  S
C1455      C1709   1.430       .  S
C1456      C1711   1.459       .  S
C1457      C1718   1.382       .  S
Zn1458     O1462   1.904       .  S
Zn1458     O1463   2.012       .  S
Zn1458     O1467   1.985       .  S
Zn1458     O1474   1.937       .  S
Zn1459     O1462   1.951       .  S
Zn1459     O1464   2.048       .  S
Zn1459     O1466   2.106       .  S
Zn1459     O1470   2.019       .  S
Zn1460     O1462   1.941       .  S
Zn1460     O1465   2.073       .  S
Zn1460     O1468   2.047       .  S
Zn1460     O1471   2.061       .  S
Zn1461     O1462   1.948       .  S
Zn1461     O1469   2.020       .  S
Zn1461     O1472   1.995       .  S
Zn1461     O1473   1.940       .  S
O1463      C1475   1.271       .  A
O1464      C1476   1.285       .  A
O1465      C1477   1.280       .  A
O1466      C1475   1.284       .  A
O1467      C1477   1.270       .  A
O1468      C1476   1.284       .  A
O1469      C1478   1.271       .  A
O1470      C1479   1.269       .  A
O1471      C1478   1.272       .  A
O1472      C1479   1.270       .  A
O1473      C1480   1.262       .  A
O1474      C1480   1.263       .  A
C1475      C1712   1.463       .  S
C1476      C1708   1.443       .  S
C1477      C1714   1.447       .  S
C1478      C1716   1.454       .  S
C1479      C1710   1.431       .  S
C1480      C1720   1.390       .  S
Zn1481     O1485   1.943       .  S
Zn1481     O1486   2.041       .  S
Zn1481     O1490   2.069       .  S
Zn1481     O1497   1.960       .  S
Zn1482     O1485   1.921       .  S
Zn1482     O1487   1.915       .  S
Zn1482     O1489   1.963       .  S
Zn1482     O1493   1.947       .  S
Zn1483     O1485   1.925       .  S
Zn1483     O1488   1.989       .  S
Zn1483     O1491   1.917       .  S
Zn1483     O1494   1.920       .  S
Zn1484     O1485   1.967       .  S
Zn1484     O1492   2.126       .  S
Zn1484     O1495   2.150       .  S
Zn1484     O1496   2.120       .  S
O1486      C1498   1.272       .  A
O1487      C1499   1.261       .  A
O1488      C1500   1.264       .  A
O1489      C1498   1.262       .  A
O1490      C1500   1.275       .  A
O1491      C1499   1.260       .  A
O1492      C1501   1.286       .  A
O1493      C1502   1.260       .  A
O1494      C1501   1.259       .  A
O1495      C1502   1.287       .  A
O1496      C1503   1.294       .  A
O1497      C1503   1.272       .  A
C1498      C1705   1.429       .  S
C1499      C1697   1.377       .  S
C1500      C1701   1.446       .  S
C1501      C1699   1.444       .  S
C1502      C1703   1.459       .  S
C1503      C1754   1.436       .  S
Zn1504     O1508   1.952       .  S
Zn1504     O1509   2.019       .  S
Zn1504     O1513   2.047       .  S
Zn1505     O1508   1.944       .  S
Zn1505     O1510   2.019       .  S
Zn1505     O1512   1.996       .  S
Zn1505     O1516   1.939       .  S
Zn1506     O1508   1.941       .  S
Zn1506     O1511   2.047       .  S
Zn1506     O1514   2.060       .  S
Zn1507     O1515   1.993       .  S
Zn1507     O1518   1.937       .  S
Zn1507     O1519   2.016       .  S
O1509      C1521   1.269       .  A
O1510      C1522   1.272       .  A
O1511      C1523   1.284       .  A
O1512      C1521   1.270       .  A
O1513      C1523   1.285       .  A
O1514      C1522   1.272       .  A
O1515      C1524   1.271       .  A
O1516      C1525   1.262       .  A
O1517      C1524   1.280       .  A
O1519      C1526   1.272       .  A
O1520      C1526   1.284       .  A
C1521      C1706   1.432       .  S
C1522      C1694   1.453       .  S
C1523      C1707   1.443       .  S
C1524      C1691   1.449       .  S
C1525      C1695   1.390   1_655  S
C1526      C1704   1.463       .  S
Zn1527     O1531   1.905       .  S
Zn1527     O1532   2.010       .  S
Zn1527     O1536   1.939       .  S
Zn1527     O1543   1.990       .  S
Zn1528     O1531   1.942       .  S
Zn1528     O1535   2.104       .  S
Zn1529     O1534   1.940       .  S
Zn1529     O1537   2.009       .  S
Zn1529     O1540   2.030       .  S
Zn1530     O1538   2.054       .  S
Zn1530     O1541   2.053       .  S
O1532      C1544   1.271       .  A
O1533      C1545   1.269       .  A
O1535      C1544   1.283       .  A
O1536      C1546   1.264       .  A
O1537      C1545   1.272       .  A
O1538      C1547   1.272       .  A
O1539      C1548   1.285       .  A
O1540      C1547   1.272       .  A
O1541      C1548   1.285       .  A
O1542      C1549   1.282       .  A
O1543      C1549   1.272       .  A
C1544      C1688   1.466       .  S
C1545      C1690   1.436       .  S
C1546      C1696   1.390       .  S
C1547      C1700   1.453   1_455  S
C1548      C1830   1.446       .  S
C1549      C1702   1.445       .  S
Zn1550     O1554   1.926       .  S
Zn1550     O1555   1.904       .  S
Zn1550     O1559   1.981       .  S
Zn1550     O1566   2.005       .  S
Zn1551     O1554   1.957       .  S
Zn1551     O1556   2.006       .  S
Zn1551     O1558   1.926       .  S
Zn1551     O1562   1.988       .  S
Zn1552     O1554   1.968       .  S
Zn1552     O1557   2.084       .  S
Zn1552     O1560   2.072       .  S
Zn1552     O1563   2.051       .  S
Zn1553     O1554   1.966       .  S
Zn1553     O1561   2.054       .  S
Zn1553     O1564   2.035       .  S
Zn1553     O1565   2.111       .  S
O1555      C1567   1.257       .  A
O1556      C1568   1.268       .  A
O1557      C1569   1.281       .  A
O1558      C1567   1.261       .  A
O1559      C1569   1.268       .  A
O1560      C1568   1.273       .  A
O1561      C1570   1.286       .  A
O1562      C1571   1.268       .  A
O1563      C1570   1.285       .  A
O1564      C1571   1.270       .  A
O1565      C1572   1.282       .  A
O1566      C1572   1.269       .  A
C1567      C1698   1.377       .  S
C1568      C1692   1.453       .  S
C1569      C1693   1.450       .  S
C1570      C1685   1.444       .  S
C1571      C1689   1.436       .  S
C1572      C1687   1.466       .  S
Zn1573     O1577   1.904       .  S
Zn1573     O1578   2.141       .  S
Zn1573     O1582   2.104       .  S
Zn1573     O1589   2.157       .  S
Zn1574     O1577   1.912       .  S
Zn1574     O1579   2.076       .  S
Zn1574     O1581   1.946       .  S
Zn1574     O1585   2.046       .  S
Zn1575     O1577   1.867       .  S
Zn1575     O1580   1.941       .  S
Zn1575     O1583   2.000       .  S
Zn1575     O1586   1.968       .  S
Zn1576     O1577   1.884       .  S
Zn1576     O1584   1.933       .  S
Zn1576     O1587   1.961       .  S
Zn1576     O1588   1.948       .  S
O1578      C1590   1.298       .  A
O1579      C1591   1.279       .  A
O1580      C1592   1.269       .  A
O1581      C1590   1.270       .  A
O1582      C1592   1.288       .  A
O1583      C1591   1.267       .  A
O1584      C1593   1.262       .  A
O1585      C1594   1.277       .  A
O1586      C1593   1.271       .  A
O1587      C1594   1.263       .  A
O1588      C1595   1.261       .  A
O1589      C1595   1.289       .  A
C1590      C1804   1.440       .  S
C1591      C1675   1.448       .  S
C1592      C1678   1.435       .  S
C1593      C1679   1.394       .  S
C1594      C1684   1.425       .  S
C1595      C1681   1.459       .  S
Zn1596     O1600   1.911       .  S
Zn1596     O1601   2.124       .  S
Zn1596     O1605   2.130       .  S
Zn1596     O1612   2.146       .  S
Zn1597     O1600   1.917       .  S
Zn1597     O1602   2.084       .  S
Zn1597     O1604   1.950       .  S
Zn1597     O1608   2.043       .  S
Zn1598     O1600   1.908       .  S
Zn1598     O1603   1.921       .  S
Zn1598     O1606   1.988       .  S
Zn1598     O1609   1.937       .  S
Zn1599     O1600   1.875       .  S
Zn1599     O1607   1.942       .  S
Zn1599     O1610   1.957       .  S
Zn1599     O1611   1.971       .  S
O1601      C1613   1.296       .  A
O1602      C1614   1.279       .  A
O1603      C1615   1.262       .  A
O1604      C1613   1.271       .  A
O1605      C1615   1.288       .  A
O1606      C1614   1.266       .  A
O1607      C1616   1.268       .  A
O1608      C1617   1.275       .  A
O1609      C1616   1.261       .  A
O1610      C1617   1.262       .  A
O1611      C1618   1.267       .  A
O1612      C1618   1.289       .  A
C1613      C1777   1.435       .  S
C1614      C1670   1.450       .  S
C1615      C1671   1.442       .  S
C1616      C1674   1.389       .  S
C1617      C1683   1.425       .  S
C1618      C1682   1.461       .  S
Zn1619     O1623   1.919       .  S
Zn1619     O1624   1.963       .  S
Zn1619     O1628   2.049       .  S
Zn1619     O1635   2.038       .  S
Zn1620     O1623   1.942       .  S
Zn1620     O1625   2.117       .  S
Zn1620     O1627   2.124       .  S
Zn1620     O1631   2.159       .  S
Zn1621     O1623   1.889       .  S
Zn1621     O1626   2.007       .  S
Zn1621     O1629   1.923       .  S
Zn1621     O1632   1.946       .  S
Zn1622     O1623   1.921       .  S
Zn1622     O1630   1.937       .  S
Zn1622     O1633   1.939       .  S
Zn1622     O1634   1.956       .  S
O1624      C1636   1.272       .  A
O1625      C1637   1.286       .  A
O1626      C1638   1.269       .  A
O1627      C1636   1.295       .  A
O1628      C1638   1.275       .  A
O1629      C1637   1.261       .  A
O1630      C1639   1.264       .  A
O1631      C1640   1.288       .  A
O1632      C1639   1.266       .  A
O1633      C1640   1.258       .  A
O1634      C1641   1.261       .  A
O1635      C1641   1.274       .  A
C1636      C1735   1.441       .  S
C1637      C1676   1.440       .  S
C1638      C1677   1.442       .  S
C1639      C1673   1.391       .  S
C1640      C1666   1.462       .  S
C1641      C1668   1.422       .  S
Zn1642     O1646   1.962       .  S
Zn1642     O1647   2.048       .  S
Zn1642     O1651   2.004       .  S
Zn1642     O1658   2.094       .  S
Zn1643     O1646   1.950       .  S
Zn1643     O1648   2.059       .  S
Zn1643     O1650   2.051       .  S
Zn1643     O1654   2.043       .  S
Zn1644     O1646   1.922       .  S
Zn1644     O1649   1.980       .  S
Zn1644     O1652   2.010       .  S
Zn1644     O1655   1.937       .  S
Zn1645     O1646   1.948       .  S
Zn1645     O1653   1.940       .  S
Zn1645     O1656   2.002       .  S
Zn1645     O1657   2.022       .  S
O1647      C1659   1.284       .  A
O1648      C1660   1.274       .  A
O1649      C1661   1.268       .  A
O1650      C1659   1.284       .  A
O1651      C1661   1.268       .  A
O1652      C1660   1.269       .  A
O1653      C1662   1.258       .  A
O1654      C1663   1.275       .  A
O1655      C1662   1.264       .  A
O1656      C1663   1.274       .  A
O1657      C1664   1.272       .  A
O1658      C1664   1.280       .  A
C1659      C1686   1.445       .  S
C1660      C1672   1.450       .  S
C1661      C1667   1.423       .  S
C1662      C1680   1.392       .  S
C1663      C1669   1.447       .  S
C1664      C1665   1.467       .  S
C1667      C1668   1.199       .  T
C1671      C1672   1.214       .  T
C1673      C1674   1.177       .  T
C1677      C1678   1.209       .  T
C1679      C1680   1.180       .  T
C1681      C1682   1.222       .  T
C1685      C1686   1.212       .  T
C1687      C1688   1.226       .  T
C1689      C1690   1.207       .  T
C1691      C1692   1.216   1_655  T
C1693      C1694   1.216   1_455  T
C1695      C1696   1.178       .  T
C1697      C1698   1.172   1_655  T
C1699      C1700   1.215       .  T
C1701      C1702   1.213   1_655  T
C1703      C1704   1.223       .  T
C1705      C1706   1.203       .  T
C1707      C1708   1.211       .  T
C1711      C1712   1.223       .  T
C1713      C1714   1.215       .  T
C1717      C1718   1.174       .  T
C1719      C1720   1.178       .  T
C1721      C1722   1.217       .  T
C1727      C1728   1.207       .  T
C1729      C1730   1.211       .  T
C1731      C1732   1.226       .  T
C1733      C1734   1.198       .  T
C1735      C1736   1.211       .  T
C1737      C1738   1.213       .  T
C1739      C1740   1.208       .  T
C1741      C1742   1.179       .  T
C1743      C1744   1.215       .  T
C1745      C1746   1.214       .  T
C1747      C1748   1.180       .  T
C1749      C1750   1.223       .  T
C1751      C1752   1.201       .  T
C1753      C1754   1.210       .  T
C1755      C1756   1.212       .  T
C1759      C1760   1.203       .  T
C1763      C1764   1.213       .  T
C1765      C1766   1.181       .  T
C1767      C1768   1.180       .  T
C1771      C1772   1.211       .  T
C1775      C1776   1.221       .  T
C1777      C1778   1.208       .  T
C1779      C1780   1.203   1_565  T
C1781      C1782   1.222   1_565  T
C1783      C1784   1.208       .  T
C1785      C1786   1.215   1_655  T
C1787      C1788   1.217   1_455  T
C1789      C1790   1.174   1_465  T
C1791      C1792   1.208       .  T
C1793      C1794   1.216       .  T
C1795      C1796   1.211   1_455  T
C1797      C1798   1.178       .  T
C1799      C1800   1.224   1_545  T
C1801      C1802   1.207   1_565  T
C1803      C1804   1.212       .  T
C1805      C1806   1.222   1_565  T
C1807      C1808   1.198   1_565  T
C1809      C1810   1.211       .  T
C1811      C1812   1.212       .  T
C1813      C1814   1.215       .  T
C1815      C1816   1.182       .  T
C1817      C1818   1.212       .  T
C1819      C1820   1.215       .  T
C1821      C1822   1.211       .  T
C1823      C1824   1.182       .  T
C1825      C1826   1.226   1_545  T
C1827      C1828   1.201   1_565  T
C1829      C1830   1.212       .  T
C1831      C1832   1.212       .  T
C1833      C1834   1.222       .  T
C1837      C1838   1.213       .  T
C1839      C1840   1.215       .  T
C1843      C1844   1.177       .  T
C1845      C1846   1.215       .  T
C1847      C1848   1.211       .  T
C1851      C1852   1.181       .  T
C1855      C1856   1.201       .  T
