geometry optimzed in LAMMPS
_audit_creation_date              2020-12-01 
_audit_creation_method            'lammps2cif' 
_symmetry_space_group_name_H-M    'P1' 
_symmetry_Int_Tables_number       1 
_symmetry_cell_setting            triclinic 
loop_ 
_symmetry_equiv_pos_as_xyz 
  x,y,z 
_cell_length_a                    33.89206456 
_cell_length_b                    33.89190700760124 
_cell_length_c                    49.66040208588921 
_cell_angle_alpha                 90.00778863438961 
_cell_angle_beta                  89.99215946023915 
_cell_angle_gamma                 119.99943965168563 
loop_ 
_atom_site_label 
_atom_site_type_symbol 
_atom_site_fract_x 
_atom_site_fract_y 
_atom_site_fract_z 
_atom_site_charge 
O1          O  0.41881336  0.00150717  0.56656848    -0.77600
C2          C  0.48461272  0.11670276  0.51220920     0.83400
O3          O  0.04163045  0.15735275  0.58787626    -0.78700
O4          O  0.42252283  0.18384265  0.55220451    -0.80200
O5          O  0.32299792  0.05514076  0.59135487    -0.80000
O6          O  0.37066346  0.49091768  0.59991961    -0.78600
Zn7        Zn  0.45830897  0.06883313  0.56553803     1.55700
O8          O  0.33655515  0.08106591  0.54864790    -0.80000
Cd9        Cd  0.38171147  0.05667866  0.60209934     1.59700
Cd10       Cd  0.47930319  0.15431827  0.59776280     1.59600
O11         O  0.40140005  0.07719310  0.64108935    -0.80000
O12         O  0.43045842  0.10037199  0.57829655    -1.90500
Cd13       Cd  0.40891130  0.11852039  0.54663721     1.59900
O14         O  0.46904660  0.14152971  0.63934276    -0.80000
O15         O  0.45155681  0.12497313  0.51337879    -0.78600
C16         C  0.04229438  0.11995563  0.58841307     0.83900
C17         C  0.38935544  0.47600041  0.58389953     0.83600
O18         O  0.49073980  0.09424269  0.53057036    -0.77600
C19         C  0.30996945  0.06381017  0.56918797     0.84400
O20         O  0.00590952  0.08236828  0.59142279    -0.77700
C21         C  0.43649241  0.10926709  0.65257131     0.84500
C22         C  0.44691787  0.21514786  0.56881829     0.84800
O23         O  0.47169810  0.21039323  0.58666365    -0.80100
O24         O  0.08218040  0.08329375  0.43476766    -0.77600
C25         C  0.01640765  0.13262386  0.48908274     0.83400
O26         O  0.45947112  0.11636957  0.41335708    -0.78700
O27         O  0.07845613  0.26187674  0.44913756    -0.80200
O28         O  0.17812492  0.23273730  0.40999369    -0.80000
O29         O  0.13042906  0.12083521  0.40145801    -0.78600
Zn30       Zn  0.04272412  0.11114501  0.43574085     1.55700
O31         O  0.16451731  0.24519947  0.45267069    -0.80000
Cd32       Cd  0.11941875  0.17557098  0.39926040     1.59700
Cd33       Cd  0.02182768  0.17566278  0.40349346     1.59600
O34         O  0.09989064  0.17649184  0.36026637    -0.80000
O35         O  0.07062592  0.17054818  0.42301338    -1.90500
Cd36       Cd  0.09213698  0.21021162  0.45469187     1.59900
O37         O  0.03226391  0.17323836  0.36191504    -0.80000
O38         O  0.04949041  0.17394362  0.48794497    -0.78600
C39         C  0.45882026  0.07831428  0.41284575     0.83900
C40         C  0.11167952  0.08722860  0.41747194     0.83600
O41         O  0.01024497  0.10407853  0.47068491    -0.77600
C42         C  0.19112796  0.25449087  0.43214358     0.84400
O43         O  0.49520813  0.07712968  0.40980732    -0.77700
C44         C  0.06487880  0.17355598  0.34873365     0.84500
C45         C  0.05411629  0.26881485  0.43249823     0.84800
O46         O  0.02940096  0.23931761  0.41461704    -0.80100
O47         O  0.99712856  0.42320583  0.43485793    -0.77600
C48         C  0.11223130  0.48911767  0.48914456     0.83400
O49         O  0.15293142  0.04627233  0.41357295    -0.78700
O50         O  0.17951346  0.42711728  0.44915861    -0.80200
O51         O  0.05083838  0.32768496  0.40994172    -0.80000
O52         O  0.48670226  0.37546434  0.40129832    -0.78600
Zn53       Zn  0.06443221  0.46281781  0.43583861     1.55700
O54         O  0.07668880  0.34115176  0.45266419    -0.80000
Cd55       Cd  0.05246815  0.38644566  0.39920129     1.59700
Cd56       Cd  0.15008009  0.48405076  0.40368342     1.59600
O57         O  0.07327631  0.40618885  0.36025992    -0.80000
O58         O  0.09609078  0.43510649  0.42306420    -1.90500
Cd59       Cd  0.11418236  0.41350149  0.45471378     1.59900
O60         O  0.13758362  0.47385319  0.36208421    -0.80000
O61         O  0.12058897  0.45612151  0.48796999    -0.78600
C62         C  0.11550797  0.04688397  0.41303567     0.83900
C63         C  0.47169205  0.39393120  0.41742722     0.83600
O64         O  0.08973208  0.49519608  0.47079432    -0.77600
C65         C  0.05945783  0.31460569  0.43210574     0.84400
O66         O  0.07793169  0.01048166  0.41001490    -0.77700
C67         C  0.10542524  0.44126471  0.34881497     0.84500
C68         C  0.21087277  0.45163411  0.43260220     0.84800
O69         O  0.20617261  0.47653090  0.41481944    -0.80100
O70         O  0.07876403  0.08678297  0.56657027    -0.77600
C71         C  0.12810578  0.02091748  0.51225325     0.83400
O72         O  0.11163958  0.46380744  0.58782261    -0.78700
O73         O  0.25734147  0.08299572  0.55221749    -0.80200
O74         O  0.22809572  0.18244551  0.59139761    -0.80000
O75         O  0.11618632  0.13471338  0.60003254    -0.78600
Zn76       Zn  0.10652105  0.04722240  0.56555611     1.55700
O77         O  0.24047250  0.16893514  0.54867975    -0.80000
Cd78       Cd  0.17094546  0.12369793  0.60215053     1.59700
Cd79       Cd  0.17097052  0.02607708  0.59770103     1.59600
O80         O  0.17193153  0.10394923  0.64110569    -0.80000
O81         O  0.16590201  0.07499865  0.57831161    -1.90500
Cd82       Cd  0.20562003  0.09658675  0.54666451     1.59900
O83         O  0.16860026  0.03629266  0.63929078    -0.80000
O84         O  0.16944838  0.05392945  0.51342686    -0.78600
C85         C  0.07358758  0.46315909  0.58837696     0.83900
C86         C  0.08265268  0.11614765  0.58395388     0.83600
O87         O  0.09950197  0.01484207  0.53059370    -0.77600
C88         C  0.24979158  0.19550234  0.56922806     0.84400
O89         O  0.07238736  0.49954838  0.59139543    -0.77700
C90         C  0.16898184  0.06886292  0.65255409     0.84500
C91         C  0.26418936  0.05848977  0.56877384     0.84800
O92         O  0.23459909  0.03360843  0.58656781    -0.80100
O93         O  0.42246522  0.00867815  0.43470232    -0.77600
C94         C  0.37303374  0.39341716  0.48911271     0.83400
O95         O  0.38947077  0.35275530  0.41354200    -0.78700
O96         O  0.24379097  0.32629127  0.44912754    -0.80200
O97         O  0.27298291  0.45491461  0.40998385    -0.80000
O98         O  0.38486258  0.01917914  0.40134781    -0.78600
Zn99       Zn  0.39465308  0.44134063  0.43579798     1.55700
O100        O  0.26068513  0.42908640  0.45271132    -0.80000
Cd101      Cd  0.33016876  0.45338031  0.39921835     1.59700
Cd102      Cd  0.33017739  0.35575323  0.40363437     1.59600
O103        O  0.32936257  0.43276327  0.36025057    -0.80000
O104        O  0.33526158  0.40974289  0.42304388    -1.90500
Cd105      Cd  0.29553323  0.39158797  0.45469049     1.59900
O106        O  0.33274822  0.36846704  0.36205028    -0.80000
O107        O  0.33168211  0.38505531  0.48792124    -0.78600
C108        C  0.42753672  0.39014458  0.41297859     0.83900
C109        C  0.41848556  0.03414744  0.41735656     0.83600
O110        O  0.40165851  0.41599156  0.47078830    -0.77600
C111        C  0.25132562  0.44630230  0.43216818     0.84400
O112        O  0.42875805  0.42774141  0.40995983    -0.77700
C113        C  0.33243532  0.40069542  0.34879737     0.84500
C114        C  0.23691529  0.29495205  0.43254915     0.84800
O115        O  0.26649032  0.29967225  0.41473601    -0.80100
O116        O  0.50394448  0.42668942  0.56655628    -0.77600
C117        C  0.38888766  0.37747207  0.51222779     0.83400
O118        O  0.34812802  0.39379358  0.58788378    -0.78700
O119        O  0.32155454  0.24818493  0.55221036    -0.80200
O120        O  0.45028170  0.27733799  0.59138078    -0.80000
O121        O  0.01447895  0.38925483  0.59999310    -0.78600
Zn122      Zn  0.43664606  0.39892773  0.56555677     1.55700
O123        O  0.42431816  0.26491587  0.54868348    -0.80000
Cd124      Cd  0.44871489  0.33449795  0.60212388     1.59700
Cd125      Cd  0.35108409  0.33447343  0.59778463     1.59600
O126        O  0.42809744  0.33351593  0.64108967    -0.80000
O127        O  0.40502955  0.33954525  0.57831951    -1.90500
Cd128      Cd  0.38689589  0.29986254  0.54665237     1.59900
O129        O  0.36378159  0.33686711  0.63937907    -0.80000
O130        O  0.38051807  0.33611179  0.51339682    -0.78600
C131        C  0.38554039  0.43184163  0.58838223     0.83900
C132        C  0.02942772  0.42280085  0.58392626     0.83600
O133        O  0.41136435  0.40603361  0.53059406    -0.77600
C134        C  0.44158907  0.25560760  0.56922302     0.84400
O135        O  0.42312148  0.43303601  0.59141162    -0.77700
C136        C  0.39601357  0.33647912  0.65259206     0.84500
C137        C  0.29024302  0.24129075  0.56881804     0.84800
O138        O  0.29499252  0.27083326  0.58665966    -0.80100
O139        O  0.08946335  0.34205442  0.10152272    -0.77600
C140        C  0.04027506  0.22682838  0.15581960     0.83400
O141        O  0.05671846  0.18621342  0.08027237    -0.78700
O142        O  0.41094891  0.15959259  0.11583715    -0.80200
O143        O  0.44018922  0.28825863  0.07668204    -0.80000
O144        O  0.05207707  0.35243688  0.06799519    -0.78600
Zn145      Zn  0.06176816  0.27474079  0.10254043     1.55700
O146        O  0.42782268  0.26240534  0.11940553    -0.80000
Cd147      Cd  0.99732292  0.28666028  0.06591827     1.59700
Cd148      Cd  0.99735861  0.18907773  0.07038075     1.59600
O149        O  0.49630627  0.26589368  0.02697053    -0.80000
O150        O  0.00239228  0.24305317  0.08977374    -1.90500
Cd151      Cd  0.46267802  0.22490157  0.12142392     1.59900
O152        O  0.49973224  0.20162368  0.02878777    -0.80000
O153        O  0.49889323  0.21838844  0.15464477    -0.78600
C154        C  0.09475952  0.22363156  0.07973402     0.83900
C155        C  0.08558776  0.36746829  0.08409349     0.83600
O156        O  0.06886355  0.24944762  0.13749524    -0.77600
C157        C  0.41849940  0.27963599  0.09885243     0.84400
O158        O  0.09594607  0.26121689  0.07672521    -0.77700
C159        C  0.49929987  0.23377814  0.01552304     0.84500
C160        C  0.40411527  0.12825107  0.09926820     0.84800
O161        O  0.43372791  0.13296796  0.08148701    -0.80100
O162        O  0.17151023  0.26018618  0.23318856    -0.77600
C163        C  0.05622667  0.21091898  0.17890191     0.83400
O164        O  0.01566434  0.22737455  0.25441149    -0.78700
O165        O  0.48913703  0.08161132  0.21885218    -0.80200
O166        O  0.11774907  0.11087344  0.25802127    -0.80000
O167        O  0.18193668  0.22277298  0.26668507    -0.78600
Zn168      Zn  0.10419048  0.23246172  0.23217485     1.55700
O169        O  0.09196014  0.09855006  0.21528365    -0.80000
Cd170      Cd  0.11615896  0.16802223  0.26878851     1.59700
Cd171      Cd  0.01855554  0.16802748  0.26429650     1.59600
O172        O  0.09538336  0.16706225  0.30774096    -0.80000
O173        O  0.07255337  0.17308014  0.24492649    -1.90500
Cd174      Cd  0.05442964  0.13337255  0.21327555     1.59900
O175        O  0.03108574  0.17043565  0.30588579    -0.80000
O176        O  0.04785692  0.16956037  0.18006723    -0.78600
C177        C  0.05307576  0.26541793  0.25499205     0.83900
C178        C  0.19694572  0.25629768  0.25059758     0.83600
O179        O  0.07882900  0.23951997  0.19722654    -0.77600
C180        C  0.10915837  0.08920425  0.23584313     0.84400
O181        O  0.09065428  0.26659903  0.25801969    -0.77700
C182        C  0.06325039  0.17005138  0.31916857     0.84500
C183        C  0.45777651  0.07477519  0.23540613     0.84800
O184        O  0.46246985  0.10438878  0.25318062    -0.80100
O185        O  0.24608161  0.42013121  0.23331976    -0.77600
C186        C  0.29545438  0.35439845  0.17890538     0.83400
O187        O  0.27916683  0.29733522  0.25453427    -0.78700
O188        O  0.42471568  0.41637818  0.21886728    -0.80200
O189        O  0.39562791  0.01598624  0.25801124    -0.80000
O190        O  0.28374566  0.46841897  0.26659014    -0.78600
Zn191      Zn  0.27392790  0.38066130  0.23225583     1.55700
O192        O  0.40797455  0.00239132  0.21530559    -0.80000
Cd193      Cd  0.33842146  0.45729766  0.26876220     1.59700
Cd194      Cd  0.33842899  0.35966518  0.26444555     1.59600
O195        O  0.33919614  0.43759431  0.30774611    -0.80000
O196        O  0.33333494  0.40851432  0.24497792    -1.90500
Cd197      Cd  0.37303253  0.43003348  0.21331458     1.59900
O198        O  0.33583648  0.36992048  0.30602417    -0.80000
O199        O  0.33679534  0.38742154  0.18006710    -0.78600
C200        C  0.24109912  0.29665502  0.25508400     0.83900
C201        C  0.25008784  0.44966517  0.25061230     0.83600
O202        O  0.26688235  0.34827969  0.19727761    -0.77600
C203        C  0.41732007  0.02899362  0.23583862     0.84400
O204        O  0.23988238  0.33302685  0.25813087    -0.77700
C205        C  0.33613111  0.40249531  0.31923893     0.84500
C206        C  0.43163767  0.39201428  0.23549569     0.84800
O207        O  0.40211574  0.36726841  0.25335841    -0.80100
O208        O  0.16446965  0.25688474  0.10148696    -0.77600
C209        C  0.27955269  0.32261681  0.15578091     0.83400
O210        O  0.32025967  0.37964239  0.08010402    -0.78700
O211        O  0.34672917  0.26056771  0.11585402    -0.80200
O212        O  0.21798436  0.16098924  0.07665956    -0.80000
O213        O  0.15380915  0.20874727  0.06811690    -0.78600
Zn214      Zn  0.23177843  0.29635167  0.10244697     1.55700
O215        O  0.24396794  0.17453257  0.11935130    -0.80000
Cd216      Cd  0.21955386  0.21972346  0.06593547     1.59700
Cd217      Cd  0.31724394  0.31731225  0.07024559     1.59600
O218        O  0.24012064  0.23933912  0.02696168    -0.80000
O219        O  0.26329006  0.26846622  0.08971688    -1.90500
Cd220      Cd  0.28138169  0.24689810  0.12138613     1.59900
O221        O  0.30450397  0.30695302  0.02865996    -0.80000
O222        O  0.28774427  0.28950580  0.15464236    -0.78600
C223        C  0.28284511  0.38026862  0.07955698     0.83900
C224        C  0.13892752  0.22744264  0.08416128     0.83600
O225        O  0.25719966  0.32881909  0.13738642    -0.77600
C226        C  0.22669009  0.14795253  0.09881048     0.84400
O227        O  0.24528786  0.34386674  0.07651267    -0.77700
C228        C  0.27222709  0.27435758  0.01545445     0.84500
C229        C  0.37804952  0.28497289  0.09925023     0.84800
O230        O  0.37330973  0.30974729  0.08139547    -0.80100
O231        O  0.24944161  0.41657635  0.10132727    -0.77600
C232        C  0.18376103  0.46599105  0.15576166     0.83400
O233        O  0.12664152  0.44968759  0.08016552    -0.78700
O234        O  0.24576986  0.09525479  0.11580916    -0.80200
O235        O  0.34531126  0.06612743  0.07664636    -0.80000
O236        O  0.29772274  0.45424437  0.06805392    -0.78600
Zn237      Zn  0.20997341  0.44442762  0.10240445     1.55700
O238        O  0.33173692  0.07843696  0.11936348    -0.80000
Cd239      Cd  0.28660587  0.00892814  0.06588941     1.59700
Cd240      Cd  0.18897037  0.00895041  0.07025749     1.59600
O241        O  0.26686120  0.00974373  0.02691298    -0.80000
O242        O  0.23783817  0.50383994  0.08968825    -1.90500
Cd243      Cd  0.25939049  0.04354142  0.12134744     1.59900
O244        O  0.19919886  0.00640824  0.02867817    -0.80000
O245        O  0.21679304  0.00732403  0.15459358    -0.78600
C246        C  0.12594847  0.41161446  0.07959872     0.83900
C247        C  0.27898038  0.42058984  0.08403584     0.83600
O248        O  0.17762068  0.43740502  0.13739320    -0.77600
C249        C  0.35833213  0.08779587  0.09882678     0.84400
O250        O  0.16231246  0.41038673  0.07653852    -0.77700
C251        C  0.23175602  0.00671406  0.01544198     0.84500
C252        C  0.22136686  0.10216571  0.09920507     0.84800
O253        O  0.19658047  0.07263064  0.08135979    -0.80100
O254        O  0.08630152  0.33510681  0.23321779    -0.77600
C255        C  0.15200119  0.45012114  0.17889334     0.83400
O256        O  0.20912503  0.49092148  0.25458101    -0.78700
O257        O  0.09005857  0.01741957  0.21884501    -0.80200
O258        O  0.49046556  0.38864346  0.25804427    -0.80000
O259        O  0.03824921  0.32450115  0.26662689    -0.78600
Zn260      Zn  0.12579035  0.40241273  0.23224057     1.55700
O261        O  0.00401005  0.41463733  0.21535573    -0.80000
Cd262      Cd  0.04921204  0.39024713  0.26877506     1.59700
Cd263      Cd  0.14680935  0.48793195  0.26444399     1.59600
O264        O  0.06880029  0.41088599  0.30774001    -0.80000
O265        O  0.09795022  0.43396772  0.24498323    -1.90500
Cd266      Cd  0.07637124  0.45205953  0.21331795     1.59900
O267        O  0.13642531  0.47525584  0.30603578    -0.80000
O268        O  0.11892886  0.45836762  0.18004867    -0.78600
C269        C  0.20975695  0.45350847  0.25509915     0.83900
C270        C  0.05689392  0.30958912  0.25056505     0.83600
O271        O  0.15819695  0.42775978  0.19728385    -0.77600
C272        C  0.47742739  0.39734679  0.23589387     0.84400
O273        O  0.17336229  0.41593914  0.25813422    -0.77700
C274        C  0.10381062  0.44301835  0.31924575     0.84500
C275        C  0.11448540  0.04874719  0.23544049     0.84800
O276        O  0.13927172  0.04400803  0.25328601    -0.80100
O277        O  0.41589524  0.24976481  0.76811509    -0.77600
C278        C  0.35009930  0.29898103  0.82249621     0.83400
O279        O  0.29283933  0.28258166  0.74694935    -0.78700
O280        O  0.41197413  0.42827560  0.78252282    -0.80200
O281        O  0.01145107  0.39908718  0.74328018    -0.80000
O282        O  0.46374779  0.28717593  0.73462260    -0.78600
Zn283      Zn  0.37631152  0.27748394  0.76915417     1.55700
O284        O  0.99796344  0.41145259  0.78600566    -0.80000
Cd285      Cd  0.45270321  0.34192859  0.73253778     1.59700
Cd286      Cd  0.35507280  0.34191145  0.73703300     1.59600
O287        O  0.43290985  0.34291772  0.69359827    -0.80000
O288        O  0.40402450  0.33686581  0.75640224    -1.90500
Cd289      Cd  0.42562249  0.37657645  0.78805395     1.59900
O290        O  0.36523013  0.33953082  0.69543245    -0.80000
O291        O  0.38306775  0.34034543  0.82131756    -0.78600
C292        C  0.29219367  0.24453064  0.74639922     0.83900
C293        C  0.44522913  0.25365244  0.75071180     0.83600
O294        O  0.34401068  0.27040760  0.80413679    -0.77600
C295        C  0.02451825  0.42077676  0.76545115     0.84400
O296        O  0.32857588  0.24332229  0.74335991    -0.77700
C297        C  0.39780298  0.33994010  0.68215930     0.84500
C298        C  0.38747575  0.43512477  0.76595903     0.84800
O299        O  0.36260526  0.40553644  0.74816249    -0.80100
O300        O  0.25254934  0.16791350  0.89991974    -0.77600
C301        C  0.31832272  0.28305199  0.84561292     0.83400
O302        O  0.37545453  0.32375926  0.92116417    -0.78700
O303        O  0.25620850  0.35017977  0.88552906    -0.80200
O304        O  0.15680223  0.22153461  0.92475626    -0.80000
O305        O  0.20456084  0.15736965  0.93335702    -0.78600
Zn306      Zn  0.29207843  0.23523021  0.89892711     1.55700
O307        O  0.17027795  0.24735718  0.88202953    -0.80000
Cd308      Cd  0.21556350  0.22313821  0.93549348     1.59700
Cd309      Cd  0.31317199  0.32080933  0.93103422     1.59600
O310        O  0.23534285  0.24387885  0.97444349    -0.80000
O311        O  0.26424908  0.26679501  0.91165764    -1.90500
Cd312      Cd  0.24262179  0.28485638  0.88000657     1.59900
O313        O  0.30297011  0.30823799  0.97262561    -0.80000
O314        O  0.28524513  0.29128608  0.84676847    -0.78600
C315        C  0.37609519  0.28635369  0.92175867     0.83900
C316        C  0.22316039  0.14242123  0.91728540     0.83600
O317        O  0.32448118  0.26061964  0.86397502    -0.77600
C318        C  0.14372652  0.23014189  0.90258568     0.84400
O319        O  0.33970023  0.24878314  0.92480409    -0.77700
C320        C  0.27042598  0.27603407  0.98588937     0.84500
C321        C  0.28071698  0.38155499  0.90207720     0.84800
O322        O  0.30560410  0.37687062  0.91987596    -0.80100
O323        O  0.25571539  0.17487503  0.76821067    -0.77600
C324        C  0.20648013  0.05967246  0.82246421     0.83400
O325        O  0.22281138  0.01910483  0.74679071    -0.78700
O326        O  0.07720998  0.49251770  0.78248496    -0.80200
O327        O  0.10638197  0.12126328  0.74335648    -0.80000
O328        O  0.21829208  0.18545300  0.73478246    -0.78600
Zn329      Zn  0.22794539  0.10756913  0.76916895     1.55700
O330        O  0.09393740  0.09526567  0.78604784    -0.80000
Cd331      Cd  0.16353946  0.11970813  0.73261518     1.59700
Cd332      Cd  0.16349029  0.02207660  0.73690965     1.59600
O333        O  0.16257264  0.09915839  0.69363202    -0.80000
O334        O  0.16856669  0.07599489  0.75640418    -1.90500
Cd335      Cd  0.12889318  0.05783948  0.78807566     1.59900
O336        O  0.16589303  0.03482610  0.69532565    -0.80000
O337        O  0.16513240  0.05135168  0.82131423    -0.78600
C338        C  0.26085507  0.05652229  0.74629323     0.83900
C339        C  0.25183412  0.20037716  0.75084983     0.83600
O340        O  0.23504016  0.08217515  0.80410112    -0.77600
C341        C  0.08463640  0.11254746  0.76550888     0.84400
O342        O  0.26203327  0.09409664  0.74327235    -0.77700
C343        C  0.16552287  0.06707116  0.68212100     0.84500
C344        C  0.07030747  0.46122227  0.76586314     0.84800
O345        O  0.09984637  0.46598016  0.74801695    -0.80100
O346        O  0.33777493  0.09314098  0.89988546    -0.77600
C347        C  0.22243101  0.04377195  0.84556325     0.83400
O348        O  0.18193304  0.06019838  0.92119620    -0.78700
O349        O  0.15537334  0.41452335  0.88555855    -0.80200
O350        O  0.28406837  0.44371939  0.92465177    -0.80000
O351        O  0.34829920  0.05560227  0.93326900    -0.78600
Zn352      Zn  0.27044233  0.06533926  0.89884864     1.55700
O353        O  0.25812875  0.43133528  0.88194704    -0.80000
Cd354      Cd  0.28253234  0.00088713  0.93541546     1.59700
Cd355      Cd  0.18491947  0.00088608  0.93107730     1.59600
O356        O  0.26198782  0.50002851  0.97439758    -0.80000
O357        O  0.23885737  0.00595641  0.91161308    -1.90500
Cd358      Cd  0.22066648  0.46624167  0.87995753     1.59900
O359        O  0.19768972  0.50340980  0.97265542    -0.80000
O360        O  0.21408289  0.50241888  0.84673486    -0.78600
C361        C  0.21934144  0.09824897  0.92172847     0.83900
C362        C  0.36325123  0.08919982  0.91724283     0.83600
O363        O  0.24502253  0.07237634  0.86389260    -0.77600
C364        C  0.27539105  0.42201262  0.90248507     0.86200
O365        O  0.25692447  0.09943654  0.92472778    -0.77700
C366        C  0.22993426  0.50307563  0.98588131     0.84500
C367        C  0.12407080  0.40764154  0.90216777     0.84800
O368        O  0.12882328  0.43720859  0.91999386    -0.80100
O369        O  0.41250513  0.25308296  0.89997073    -0.77600
C370        C  0.46172314  0.18733560  0.84558758     0.83400
O371        O  0.44545919  0.13020151  0.92124481    -0.78700
O372        O  0.09102910  0.24919986  0.88556392    -0.80200
O373        O  0.06190472  0.34883286  0.92475026    -0.80000
O374        O  0.45001097  0.30115932  0.93335470    -0.78600
Zn375      Zn  0.44028494  0.21356645  0.89895129     1.55700
O376        O  0.07430512  0.33525756  0.88205281    -0.80000
Cd377      Cd  0.50474392  0.29011480  0.93549164     1.59700
Cd378      Cd  0.50476599  0.19249470  0.93115332     1.59600
O379        O  0.00571910  0.27049178  0.97445814    -0.80000
O380        O  0.49968256  0.24135817  0.91169193    -1.90500
Cd381      Cd  0.03936120  0.26289492  0.88002226     1.59900
O382        O  0.00236862  0.20282273  0.97274281    -0.80000
O383        O  0.00308017  0.22033108  0.84675319    -0.78600
C384        C  0.40740204  0.12954745  0.92175012     0.83900
C385        C  0.41643585  0.28251798  0.91731084     0.83600
O386        O  0.43317827  0.18120960  0.86397456    -0.77600
C387        C  0.08361949  0.36185334  0.90258755     0.84400
O388        O  0.40619381  0.16592393  0.92480103    -0.77700
C389        C  0.00275643  0.23544463  0.98595715     0.84500
C390        C  0.09793741  0.22480808  0.90218022     0.84800
O391        O  0.06840886  0.20004422  0.92003321    -0.80100
O392        O  0.33054611  0.08984832  0.76808470    -0.77600
C393        C  0.44576999  0.15556460  0.82245815     0.83400
O394        O  0.48642283  0.21261394  0.74680750    -0.78700
O395        O  0.01284030  0.09343601  0.78249364    -0.80200
O396        O  0.38413925  0.49393277  0.74336138    -0.80000
O397        O  0.31992093  0.04161099  0.73477743    -0.78600
Zn398      Zn  0.39787764  0.12930608  0.76913285     1.55700
O399        O  0.41005131  0.00749879  0.78606933    -0.80000
Cd400      Cd  0.38568374  0.05265220  0.73260127     1.59700
Cd401      Cd  0.48335829  0.15026324  0.73694040     1.59600
O402        O  0.40622729  0.07235737  0.69361403    -0.80000
O403        O  0.42938661  0.10141337  0.75639144    -1.90500
Cd404      Cd  0.44752617  0.07984669  0.78804401     1.59900
O405        O  0.47057969  0.13999599  0.69536171    -0.80000
O406        O  0.45401023  0.12249206  0.82128520    -0.78600
C407        C  0.44903507  0.21329249  0.74624827     0.83900
C408        C  0.30502193  0.06035115  0.75077421     0.83600
O409        O  0.42330943  0.16171558  0.80410629    -0.77600
C410        C  0.39279907  0.48090719  0.76553357     0.84400
O411        O  0.41144640  0.17691075  0.74323623    -0.77700
C412        C  0.43830754  0.10744136  0.68213316     0.84500
C413        C  0.04416831  0.11786267  0.76590108     0.84800
O414        O  0.03943044  0.14266268  0.74806160    -0.80100
O415        O  0.41881379  0.50150841  0.56656763    -0.77600
C416        C  0.48461410  0.61670567  0.51221003     0.83400
O417        O  0.04163211  0.65735350  0.58787561    -0.78700
O418        O  0.42252205  0.68384397  0.55220540    -0.80200
O419        O  0.32300004  0.55514179  0.59135592    -0.80000
O420        O  0.37065989  0.99091607  0.59991876    -0.78600
Zn421      Zn  0.45830933  0.56883423  0.56553787     1.55700
O422        O  0.33655659  0.58106664  0.54864885    -0.80000
Cd423      Cd  0.38171421  0.55668039  0.60210015     1.59700
Cd424      Cd  0.47930560  0.65432104  0.59776224     1.59600
O425        O  0.40140478  0.57719654  0.64108977    -0.80000
O426        O  0.43046006  0.60037399  0.57829706    -1.90500
Cd427      Cd  0.40891244  0.61852247  0.54663819     1.59900
O428        O  0.46905075  0.64153384  0.63934251    -0.80000
O429        O  0.45155918  0.62497745  0.51338002    -0.78600
C430        C  0.04229540  0.61995599  0.58841257     0.83900
C431        C  0.38935340  0.97599911  0.58389968     0.83600
O432        O  0.49073984  0.59424373  0.53057052    -0.77600
C433        C  0.30997117  0.56381081  0.56918901     0.84400
O434        O  0.00591020  0.58236888  0.59142222    -0.77700
C435        C  0.43649716  0.60927113  0.65257140     0.84500
C436        C  0.44691839  0.71515011  0.56881831     0.84800
O437        O  0.47170042  0.71039646  0.58666291    -0.80100
O438        O  0.08218798  0.58329853  0.43477049    -0.77600
C439        C  0.01640945  0.63262697  0.48908390     0.83400
O440        O  0.45947170  0.61636577  0.41335829    -0.78700
O441        O  0.07845325  0.76187767  0.44913642    -0.80200
O442        O  0.17812351  0.73273968  0.40999418    -0.80000
O443        O  0.13043108  0.62083782  0.40145828    -0.78600
Zn444      Zn  0.04272873  0.61114704  0.43574330     1.55700
O445        O  0.16451588  0.74520287  0.45267100    -0.80000
Cd446      Cd  0.11941843  0.67557242  0.39926120     1.59700
Cd447      Cd  0.02182580  0.67566108  0.40349467     1.59600
O448        O  0.09988987  0.67649310  0.36026744    -0.80000
O449        O  0.07062586  0.67054922  0.42301438    -1.90500
Cd450      Cd  0.09213583  0.71021438  0.45469205     1.59900
O451        O  0.03226192  0.67323694  0.36191638    -0.80000
O452        O  0.04948919  0.67394800  0.48794504    -0.78600
C453        C  0.45882267  0.57831130  0.41284813     0.83900
C454        C  0.11168511  0.58723269  0.41747347     0.83600
O455        O  0.01025026  0.60408058  0.47068748    -0.77600
C456        C  0.19112636  0.75449391  0.43214384     0.84400
O457        O  0.49521141  0.57712771  0.40981133    -0.77700
C458        C  0.06487740  0.67355586  0.34873489     0.84500
C459        C  0.05411095  0.76881337  0.43249779     0.84800
O460        O  0.02939487  0.73931460  0.41461749    -0.80100
O461        O  0.99712333  0.92320329  0.43485835    -0.77600
C462        C  0.11222801  0.98911675  0.48914365     0.83400
O463        O  0.15293739  0.54627634  0.41357461    -0.78700
O464        O  0.17950769  0.92711491  0.44915743    -0.80200
O465        O  0.05083080  0.82768208  0.40994101    -0.80000
O466        O  0.48669645  0.87546405  0.40129728    -0.78600
Zn467      Zn  0.06442705  0.96281509  0.43583823     1.55700
O468        O  0.07668232  0.84114987  0.45266333    -0.80000
Cd469      Cd  0.05246150  0.88644327  0.39920024     1.59700
Cd470      Cd  0.15007376  0.98404681  0.40368219     1.59600
O471        O  0.07327017  0.90618599  0.36025860    -0.80000
O472        O  0.09608470  0.93510348  0.42306321    -1.90500
Cd473      Cd  0.11417673  0.91349944  0.45471278     1.59900
O474        O  0.13757834  0.97384949  0.36208301    -0.80000
O475        O  0.12058515  0.95612025  0.48796903    -0.78600
C476        C  0.11551394  0.54688807  0.41303701     0.83900
C477        C  0.47168675  0.89393040  0.41742690     0.83600
O478        O  0.08972835  0.99519487  0.47079357    -0.77600
C479        C  0.05945092  0.81460344  0.43210505     0.84400
O480        O  0.07793781  0.51048574  0.41001576    -0.77700
C481        C  0.10541978  0.94126138  0.34881370     0.84500
C482        C  0.21086709  0.95163227  0.43260121     0.84800
O483        O  0.20616661  0.97652864  0.41481839    -0.80100
O484        O  0.07876451  0.58678148  0.56657104    -0.77600
C485        C  0.12810837  0.52091803  0.51225419     0.83400
O486        O  0.11163814  0.96380848  0.58782221    -0.78700
O487        O  0.25734329  0.58299642  0.55221874    -0.80200
O488        O  0.22809630  0.68244525  0.59139816    -0.80000
O489        O  0.11618735  0.63471374  0.60003244    -0.78600
Zn490      Zn  0.10652211  0.54722141  0.56555693     1.55700
O491        O  0.24047287  0.66893520  0.54868022    -0.80000
Cd492      Cd  0.17094602  0.62369760  0.60215112     1.59700
Cd493      Cd  0.17097152  0.52607645  0.59770145     1.59600
O494        O  0.17193168  0.60394828  0.64110622    -0.80000
O495        O  0.16590306  0.57499833  0.57831235    -1.90500
Cd496      Cd  0.20562174  0.59658708  0.54666566     1.59900
O497        O  0.16860116  0.53629199  0.63929115    -0.80000
O498        O  0.16945077  0.55393031  0.51342791    -0.78600
C499        C  0.07358639  0.96316067  0.58837645     0.83900
C500        C  0.08265348  0.61614724  0.58395397     0.83600
O501        O  0.09950422  0.51484200  0.53059454    -0.77600
C502        C  0.24979180  0.69550236  0.56922850     0.84400
O503        O  0.07238662  0.99955019  0.59139484    -0.77700
C504        C  0.16898231  0.56886195  0.65255451     0.84500
C505        C  0.26419100  0.55849010  0.56877488     0.84800
O506        O  0.23460046  0.53360819  0.58656857    -0.80100
O507        O  0.42246691  0.50867476  0.43470411    -0.77600
C508        C  0.37303160  0.89342065  0.48911300     0.83400
O509        O  0.38946589  0.85275666  0.41354142    -0.78700
O510        O  0.24378948  0.82629392  0.44912791    -0.80200
O511        O  0.27297842  0.95491496  0.40998320    -0.80000
O512        O  0.38486648  0.51917574  0.40134834    -0.78600
Zn513      Zn  0.39465057  0.94134370  0.43579761     1.55700
O514        O  0.26068119  0.92908742  0.45271088    -0.80000
Cd515      Cd  0.33016552  0.95338305  0.39921756     1.59700
Cd516      Cd  0.33017415  0.85575661  0.40363358     1.59600
O517        O  0.32936047  0.93276665  0.36024945    -0.80000
O518        O  0.33525893  0.90974612  0.42304347    -1.90500
Cd519      Cd  0.29553091  0.89159078  0.45469048     1.59900
O520        O  0.33274587  0.86847036  0.36204944    -0.80000
O521        O  0.33167998  0.88505893  0.48792155    -0.78600
C522        C  0.42753225  0.89014539  0.41297837     0.83900
C523        C  0.41848830  0.53414405  0.41735792     0.83600
O524        O  0.40165620  0.91599502  0.47078845    -0.77600
C525        C  0.25132084  0.94630209  0.43216748     0.84400
O526        O  0.42875477  0.92774284  0.40995981    -0.77700
C527        C  0.33243350  0.90069861  0.34879636     0.84500
C528        C  0.23691332  0.79495517  0.43254908     0.84800
O529        O  0.26648752  0.79967584  0.41473526    -0.80100
O530        O  0.50394235  0.92669180  0.56655671    -0.77600
C531        C  0.38888563  0.87747525  0.51222813     0.83400
O532        O  0.34812543  0.89379254  0.58788397    -0.78700
O533        O  0.32155371  0.74818636  0.55220993    -0.80200
O534        O  0.45028163  0.77734011  0.59138068    -0.80000
O535        O  0.01447805  0.88925629  0.59999250    -0.78600
Zn536      Zn  0.43664387  0.89892910  0.56555719     1.55700
O537        O  0.42431762  0.76491759  0.54868346    -0.80000
Cd538      Cd  0.44871408  0.83449965  0.60212368     1.59700
Cd539      Cd  0.35108276  0.83447345  0.59778503     1.59600
O540        O  0.42809721  0.83351770  0.64108965    -0.80000
O541        O  0.40502828  0.83954619  0.57831937    -1.90500
Cd542      Cd  0.38689520  0.79986456  0.54665195     1.59900
O543        O  0.36378081  0.83686783  0.63937944    -0.80000
O544        O  0.38051722  0.83611522  0.51339673    -0.78600
C545        C  0.38553783  0.93184042  0.58838305     0.83900
C546        C  0.02942627  0.92280270  0.58392601     0.83600
O547        O  0.41136143  0.90603630  0.53059483    -0.77600
C548        C  0.44158900  0.75560964  0.56922297     0.84400
O549        O  0.42311848  0.93303443  0.59141363    -0.77700
C550        C  0.39601322  0.83648041  0.65259225     0.84500
C551        C  0.29024263  0.74129113  0.56881824     0.84800
O552        O  0.29499211  0.77083296  0.58666030    -0.80100
O553        O  0.08945939  0.84205925  0.10152773    -0.77600
C554        C  0.04027132  0.72683037  0.15582333     0.83400
O555        O  0.05671953  0.68621874  0.08027534    -0.78700
O556        O  0.41094648  0.65959417  0.11583794    -0.80200
O557        O  0.44018885  0.78826107  0.07668445    -0.80000
O558        O  0.05207695  0.85243832  0.06799659    -0.78600
Zn559      Zn  0.06176598  0.77474557  0.10254526     1.55700
O560        O  0.42782110  0.76240695  0.11940783    -0.80000
Cd561      Cd  0.99732227  0.78666234  0.06592047     1.59700
Cd562      Cd  0.99735914  0.68908147  0.07038340     1.59600
O563        O  0.49630513  0.76589540  0.02697258    -0.80000
O564        O  0.00239140  0.74305591  0.08977654    -1.90500
Cd565      Cd  0.46267561  0.72490261  0.12142612     1.59900
O566        O  0.49973371  0.70162696  0.02879039    -0.80000
O567        O  0.49888849  0.71838721  0.15464739    -0.78600
C568        C  0.09476067  0.72363694  0.07973871     0.83900
C569        C  0.08558575  0.86747136  0.08409638     0.83600
O570        O  0.06886076  0.74945315  0.13750022    -0.77600
C571        C  0.41849845  0.77963792  0.09885464     0.84400
O572        O  0.09594814  0.76122325  0.07673240    -0.77700
C573        C  0.49930015  0.73378042  0.01552534     0.84500
C574        C  0.40411444  0.62825289  0.09926920     0.84800
O575        O  0.43372851  0.63297037  0.08148887    -0.80100
O576        O  0.17150861  0.76018864  0.23319175    -0.77600
C577        C  0.05622310  0.71092045  0.17890527     0.83400
O578        O  0.01566090  0.72737227  0.25441269    -0.78700
O579        O  0.48913634  0.58161078  0.21885366    -0.80200
O580        O  0.11774790  0.61087376  0.25802235    -0.80000
O581        O  0.18193646  0.72277293  0.26668612    -0.78600
Zn582      Zn  0.10418854  0.73246238  0.23217768     1.55700
O583        O  0.09195955  0.59855117  0.21528461    -0.80000
Cd584      Cd  0.11615809  0.66802261  0.26878976     1.59700
Cd585      Cd  0.01855323  0.66802613  0.26429812     1.59600
O586        O  0.09538227  0.66706289  0.30774219    -0.80000
O587        O  0.07255188  0.67308001  0.24492825    -1.90500
Cd588      Cd  0.05442832  0.63337322  0.21327715     1.59900
O589        O  0.03108365  0.67043461  0.30588729    -0.80000
O590        O  0.04785331  0.66956177  0.18007007    -0.78600
C591        C  0.05307223  0.76541560  0.25499415     0.83900
C592        C  0.19694499  0.75629878  0.25059954     0.83600
O593        O  0.07882651  0.73952131  0.19722975    -0.77600
C594        C  0.10915758  0.58920500  0.23584405     0.84400
O595        O  0.09065025  0.76659641  0.25802375    -0.77700
C596        C  0.06324879  0.67005117  0.31916990     0.84500
C597        C  0.45777571  0.57477375  0.23540771     0.84800
O598        O  0.46246832  0.60438704  0.25318222    -0.80100
O599        O  0.24607885  0.92012809  0.23331974    -0.77600
C600        C  0.29545320  0.85439775  0.17890564     0.83400
O601        O  0.27916677  0.79733573  0.25453462    -0.78700
O602        O  0.42471456  0.91637935  0.21886501    -0.80200
O603        O  0.39562797  0.51598392  0.25801287    -0.80000
O604        O  0.28374529  0.96842068  0.26658776    -0.78600
Zn605      Zn  0.27392687  0.88065973  0.23225644     1.55700
O606        O  0.40797499  0.50238959  0.21530713    -0.80000
Cd607      Cd  0.33842125  0.95730004  0.26876058     1.59700
Cd608      Cd  0.33842907  0.85966695  0.26444479     1.59600
O609        O  0.33919496  0.93759724  0.30774476    -0.80000
O610        O  0.33333462  0.90851577  0.24497710    -1.90500
Cd611      Cd  0.37303140  0.93003516  0.21331335     1.59900
O612        O  0.33583680  0.86992401  0.30602339    -0.80000
O613        O  0.33679299  0.88742348  0.18006611    -0.78600
C614        C  0.24109915  0.79665567  0.25508566     0.83900
C615        C  0.25008603  0.94966403  0.25061112     0.83600
O616        O  0.26688198  0.84827649  0.19727895    -0.77600
C617        C  0.41732005  0.52899169  0.23584023     0.84400
O618        O  0.23988339  0.83302778  0.25813325    -0.77700
C619        C  0.33613027  0.90249881  0.31923787     0.84500
C620        C  0.43163696  0.89201589  0.23549353     0.84800
O621        O  0.40211565  0.86727081  0.25335678    -0.80100
O622        O  0.16447197  0.75688719  0.10148998    -0.77600
C623        C  0.27955180  0.82261650  0.15578105     0.83400
O624        O  0.32025906  0.87964214  0.08010340    -0.78700
O625        O  0.34672773  0.76056872  0.11585562    -0.80200
O626        O  0.21798016  0.66098824  0.07665934    -0.80000
O627        O  0.15380795  0.70875069  0.06811872    -0.78600
Zn628      Zn  0.23178026  0.79635341  0.10244679     1.55700
O629        O  0.24396648  0.67453128  0.11935049    -0.80000
Cd630      Cd  0.21955145  0.71972380  0.06593623     1.59700
Cd631      Cd  0.31724306  0.81731159  0.07024594     1.59600
O632        O  0.24011762  0.73933880  0.02696229    -0.80000
O633        O  0.26328941  0.76846572  0.08971729    -1.90500
Cd634      Cd  0.28137933  0.74689679  0.12138675     1.59900
O635        O  0.30450290  0.80695110  0.02866029    -0.80000
O636        O  0.28773860  0.78950218  0.15464376    -0.78600
C637        C  0.28284436  0.88026797  0.07955543     0.83900
C638        C  0.13892828  0.72744639  0.08416423     0.83600
O639        O  0.25720399  0.82882277  0.13738504    -0.77600
C640        C  0.22668731  0.64795136  0.09880973     0.84400
O641        O  0.24528759  0.84386571  0.07651099    -0.77700
C642        C  0.27222511  0.77435630  0.01545491     0.84500
C643        C  0.37804829  0.78497405  0.09925196     0.84800
O644        O  0.37330851  0.80974767  0.08139669    -0.80100
O645        O  0.24943979  0.91657465  0.10132561    -0.77600
C646        C  0.18376236  0.96598989  0.15576201     0.83400
O647        O  0.12664170  0.94969030  0.08016775    -0.78700
O648        O  0.24576787  0.59525411  0.11580794    -0.80200
O649        O  0.34531184  0.56612865  0.07664671    -0.80000
O650        O  0.29772158  0.95424379  0.06805275    -0.78600
Zn651      Zn  0.20997290  0.94442700  0.10240440     1.55700
O652        O  0.33173563  0.57843796  0.11936349    -0.80000
Cd653      Cd  0.28660678  0.50892854  0.06588962     1.59700
Cd654      Cd  0.18896998  0.50894940  0.07025632     1.59600
O655        O  0.26686255  0.50974281  0.02691291    -0.80000
O656        O  0.23783818  0.00383973  0.08968873    -1.90500
Cd657      Cd  0.25938919  0.54354152  0.12134685     1.59900
O658        O  0.19920014  0.50640735  0.02867738    -0.80000
O659        O  0.21679191  0.50732502  0.15459311    -0.78600
C660        C  0.12594710  0.91161647  0.07960065     0.83900
C661        C  0.27897888  0.92058872  0.08403427     0.83600
O662        O  0.17762204  0.93740413  0.13739344    -0.77600
C663        C  0.35833164  0.58779721  0.09882717     0.84400
O664        O  0.16231004  0.91038711  0.07653933    -0.77700
C665        C  0.23175748  0.50671297  0.01544158     0.84500
C666        C  0.22136462  0.60216467  0.09920388     0.84800
O667        O  0.19657846  0.57262941  0.08135856    -0.80100
O668        O  0.08630017  0.83510377  0.23321883    -0.77600
C669        C  0.15200179  0.95011956  0.17889329     0.83400
O670        O  0.20912307  0.99091999  0.25458024    -0.78700
O671        O  0.09005765  0.51742000  0.21884619    -0.80200
O672        O  0.49046401  0.88864374  0.25804186    -0.80000
O673        O  0.03824477  0.82449918  0.26662593    -0.78600
Zn674      Zn  0.12578874  0.90241000  0.23224018     1.55700
O675        O  0.00400950  0.91463834  0.21535350    -0.80000
Cd676      Cd  0.04920895  0.89024548  0.26877327     1.59700
Cd677      Cd  0.14680698  0.98792929  0.26444335     1.59600
O678        O  0.06879546  0.91088372  0.30773842    -0.80000
O679        O  0.09794833  0.93396546  0.24498199    -1.90500
Cd680      Cd  0.07637100  0.95205886  0.21331658     1.59900
O681        O  0.13642174  0.97525214  0.30603483    -0.80000
O682        O  0.11893033  0.95836734  0.18004840    -0.78600
C683        C  0.20975519  0.95350713  0.25509831     0.83900
C684        C  0.05689100  0.80958670  0.25056559     0.83600
O685        O  0.15819576  0.92775640  0.19728346    -0.77600
C686        C  0.47742650  0.89734785  0.23589154     0.84400
O687        O  0.17336075  0.91593784  0.25813402    -0.77700
C688        C  0.10380602  0.94301525  0.31924448     0.84500
C689        C  0.11448509  0.54874817  0.23544126     0.84800
O690        O  0.13927262  0.54400983  0.25328631    -0.80100
O691        O  0.41589722  0.74976666  0.76811572    -0.77600
C692        C  0.35009908  0.79898089  0.82249653     0.83400
O693        O  0.29283962  0.78258058  0.74694956    -0.78700
O694        O  0.41197339  0.92827492  0.78252329    -0.80200
O695        O  0.01145045  0.89908819  0.74328034    -0.80000
O696        O  0.46374860  0.78717739  0.73462267    -0.78600
Zn697      Zn  0.37631247  0.77748458  0.76915442     1.55700
O698        O  0.99796312  0.91145293  0.78600604    -0.80000
Cd699      Cd  0.45270324  0.84192960  0.73253778     1.59700
Cd700      Cd  0.35507254  0.84191082  0.73703358     1.59600
O701        O  0.43290996  0.84291909  0.69359830    -0.80000
O702        O  0.40402475  0.83686612  0.75640256    -1.90500
Cd703      Cd  0.42562243  0.87657620  0.78805438     1.59900
O704        O  0.36522983  0.83953120  0.69543288    -0.80000
O705        O  0.38306775  0.84034521  0.82131811    -0.78600
C706        C  0.29219469  0.74452997  0.74639924     0.83900
C707        C  0.44523102  0.75365445  0.75071231     0.83600
O708        O  0.34401063  0.77040771  0.80413696    -0.77600
C709        C  0.02451762  0.92077756  0.76545134     0.84400
O710        O  0.32857730  0.74332236  0.74335993    -0.77700
C711        C  0.39780284  0.83994117  0.68215951     0.84500
C712        C  0.38747392  0.93512323  0.76595992     0.84800
O713        O  0.36260324  0.90553463  0.74816358    -0.80100
O714        O  0.25254639  0.66791107  0.89991900    -0.77600
C715        C  0.31832211  0.78305164  0.84561312     0.83400
O716        O  0.37545277  0.82375681  0.92116517    -0.78700
O717        O  0.25620702  0.85017926  0.88553022    -0.80200
O718        O  0.15680200  0.72153334  0.92475669    -0.80000
O719        O  0.20456002  0.65736783  0.93335740    -0.78600
Zn720      Zn  0.29207616  0.73522791  0.89892670     1.55700
O721        O  0.17027753  0.74735691  0.88203012    -0.80000
Cd722      Cd  0.21556275  0.72313652  0.93549387     1.59700
Cd723      Cd  0.31317055  0.82080802  0.93103482     1.59600
O724        O  0.23534149  0.74387709  0.97444387    -0.80000
O725        O  0.26424800  0.76679371  0.91165800    -1.90500
Cd726      Cd  0.24262132  0.78485637  0.88000717     1.59900
O727        O  0.30296838  0.80823660  0.97262615    -0.80000
O728        O  0.28524569  0.79128747  0.84676914    -0.78600
C729        C  0.37609321  0.78635103  0.92175890     0.83900
C730        C  0.22315847  0.64241904  0.91728520     0.83600
O731        O  0.32447900  0.76061732  0.86397463    -0.77600
C732        C  0.14372632  0.73014139  0.90258637     0.84400
O733        O  0.33969809  0.74878021  0.92480329    -0.77700
C734        C  0.27042430  0.77603251  0.98588983     0.84500
C735        C  0.28071532  0.88155447  0.90207842     0.84800
O736        O  0.30560272  0.87687005  0.91987698    -0.80100
O737        O  0.25571681  0.67487445  0.76821079    -0.77600
C738        C  0.20648253  0.55967272  0.82246428     0.83400
O739        O  0.22281445  0.51910489  0.74679054    -0.78700
O740        O  0.07720897  0.99251847  0.78248513    -0.80200
O741        O  0.10638439  0.62126358  0.74335706    -0.80000
O742        O  0.21829371  0.68545162  0.73478220    -0.78600
Zn743      Zn  0.22794737  0.60756878  0.76916896     1.55700
O744        O  0.09394001  0.59526599  0.78604837    -0.80000
Cd745      Cd  0.16354094  0.61970687  0.73261555     1.59700
Cd746      Cd  0.16349223  0.52207558  0.73690986     1.59600
O747        O  0.16257297  0.59915704  0.69363246    -0.80000
O748        O  0.16856845  0.57599383  0.75640437    -1.90500
Cd749      Cd  0.12889483  0.55783853  0.78807569     1.59900
O750        O  0.16589414  0.53482515  0.69532591    -0.80000
O751        O  0.16513456  0.55135126  0.82131420    -0.78600
C752        C  0.26085801  0.55652265  0.74629317     0.83900
C753        C  0.25183553  0.70037622  0.75084974     0.83600
O754        O  0.23504252  0.58217554  0.80410122    -0.77600
C755        C  0.08463923  0.61254831  0.76550957     0.84400
O756        O  0.26203571  0.59409675  0.74327238    -0.77700
C757        C  0.16552341  0.56707004  0.68212136     0.84500
C758        C  0.07030642  0.96122328  0.76586316     0.84800
O759        O  0.09984492  0.96598149  0.74801663    -0.80100
O760        O  0.33777630  0.59314289  0.89988770    -0.77600
C761        C  0.22243359  0.54377242  0.84556326     0.83400
O762        O  0.18193250  0.56019602  0.92119583    -0.78700
O763        O  0.15537106  0.91452368  0.88555966    -0.80200
O764        O  0.28406737  0.94371995  0.92465259    -0.80000
O765        O  0.34830096  0.55560083  0.93326910    -0.78600
Zn766      Zn  0.27044354  0.56533962  0.89884924     1.55700
O767        O  0.25812555  0.93133392  0.88194833    -0.80000
Cd768      Cd  0.28253387  0.50088643  0.93541508     1.59700
Cd769      Cd  0.18492091  0.50088473  0.93107706     1.59600
O770        O  0.26198604  0.00002983  0.97439784    -0.80000
O771        O  0.23885914  0.50595619  0.91161283    -1.90500
Cd772      Cd  0.22066408  0.96624137  0.87995812     1.59900
O773        O  0.19768794  0.00341112  0.97265581    -0.80000
O774        O  0.21408012  0.00241831  0.84673505    -0.78600
C775        C  0.21934031  0.59824712  0.92172842     0.83900
C776        C  0.36325271  0.58920008  0.91724427     0.83600
O777        O  0.24502481  0.57237671  0.86389275    -0.77600
C778        C  0.27538899  0.92201214  0.90248618     0.86200
O779        O  0.25692362  0.59943555  0.92472822    -0.77700
C780        C  0.22993246  0.00307693  0.98588166     0.84500
C781        C  0.12406870  0.90764231  0.90216883     0.84800
O782        O  0.12882123  0.93720994  0.91999455    -0.80100
O783        O  0.41250446  0.75308062  0.89997197    -0.77600
C784        C  0.46172389  0.68733509  0.84558926     0.83400
O785        O  0.44546048  0.63020150  0.92124757    -0.78700
O786        O  0.09102892  0.74919994  0.88556540    -0.80200
O787        O  0.06190287  0.84883365  0.92475174    -0.80000
O788        O  0.45000899  0.80115766  0.93335590    -0.78600
Zn789      Zn  0.44028543  0.71356507  0.89895328     1.55700
O790        O  0.07430406  0.83525758  0.88205461    -0.80000
Cd791      Cd  0.50474286  0.79011479  0.93549341     1.59700
Cd792      Cd  0.50476691  0.69249513  0.93115593     1.59600
O793        O  0.00571851  0.77049282  0.97446011    -0.80000
O794        O  0.49968288  0.74135801  0.91169402    -1.90500
Cd795      Cd  0.03936101  0.76289499  0.88002409     1.59900
O796        O  0.00236987  0.70282452  0.97274541    -0.80000
O797        O  0.00308033  0.72033192  0.84675476    -0.78600
C798        C  0.40740334  0.62954741  0.92175245     0.83900
C799        C  0.41643423  0.78251563  0.91731182     0.83600
O800        O  0.43317906  0.68120733  0.86397665    -0.77600
C801        C  0.08361770  0.86185388  0.90258905     0.84400
O802        O  0.40619509  0.66592376  0.92480379    -0.77700
C803        C  0.00275674  0.73544633  0.98595945     0.84500
C804        C  0.09793750  0.72480816  0.90218154     0.84800
O805        O  0.06840958  0.70004484  0.92003499    -0.80100
O806        O  0.33054894  0.58984872  0.76808509    -0.77600
C807        C  0.44577150  0.65556492  0.82245935     0.83400
O808        O  0.48642580  0.71261698  0.74680812    -0.78700
O809        O  0.01284336  0.59343775  0.78249426    -0.80200
O810        O  0.38413514  0.99392981  0.74336237    -0.80000
O811        O  0.31992533  0.54161371  0.73477677    -0.78600
Zn812      Zn  0.39788066  0.62930781  0.76913347     1.55700
O813        O  0.41005387  0.50750058  0.78606863    -0.80000
Cd814      Cd  0.38568860  0.55265590  0.73260091     1.59700
Cd815      Cd  0.48336286  0.65026696  0.73694099     1.59600
O816        O  0.40623251  0.57236178  0.69361411    -0.80000
O817        O  0.42939076  0.60141652  0.75639165    -1.90500
Cd818      Cd  0.44752930  0.57984870  0.78804420     1.59900
O819        O  0.47058494  0.64000026  0.69536195    -0.80000
O820        O  0.45401196  0.62249255  0.82128602    -0.78600
C821        C  0.44903765  0.71329487  0.74624905     0.83900
C822        C  0.30502532  0.56035221  0.75077409     0.83600
O823        O  0.42331159  0.66171659  0.80410735    -0.77600
C824        C  0.39279611  0.98090503  0.76553446     0.84400
O825        O  0.41144912  0.67691286  0.74323725    -0.77700
C826        C  0.43831277  0.60744575  0.68213330     0.84500
C827        C  0.04417173  0.61786463  0.76590195     0.84800
O828        O  0.03943451  0.64266552  0.74806273    -0.80100
O829        O  0.91881349  0.00150715  0.56656848    -0.77600
C830        C  0.98461271  0.11670278  0.51220918     0.83400
O831        O  0.54163042  0.15735273  0.58787624    -0.78700
O832        O  0.92252282  0.18384266  0.55220451    -0.80200
O833        O  0.82299790  0.05514076  0.59135488    -0.80000
O834        O  0.87066358  0.49091771  0.59991965    -0.78600
Zn835      Zn  0.95830894  0.06883312  0.56553788     1.55700
O836        O  0.83655512  0.08106591  0.54864790    -0.80000
Cd837      Cd  0.88171143  0.05667866  0.60209934     1.59700
Cd838      Cd  0.97930315  0.15431827  0.59776280     1.59600
O839        O  0.90140003  0.07719310  0.64108935    -0.80000
O840        O  0.93045847  0.10037197  0.57829653    -1.90500
Cd841      Cd  0.90891125  0.11852039  0.54663721     1.59900
O842        O  0.96904658  0.14152971  0.63934276    -0.80000
O843        O  0.95155678  0.12497313  0.51337879    -0.78600
C844        C  0.54229435  0.11995561  0.58841304     0.83900
C845        C  0.88935549  0.47600042  0.58389954     0.83600
O846        O  0.99073982  0.09424270  0.53057032    -0.77600
C847        C  0.80996944  0.06381016  0.56918797     0.84400
O848        O  0.50590951  0.08236828  0.59142284    -0.77700
C849        C  0.93649242  0.10926710  0.65257131     0.84500
C850        C  0.94691789  0.21514789  0.56881829     0.84800
O851        O  0.97169809  0.21039324  0.58666365    -0.80100
O852        O  0.58218036  0.08329374  0.43476762    -0.77600
C853        C  0.51640765  0.13262384  0.48908275     0.83400
O854        O  0.95947114  0.11636954  0.41335707    -0.78700
O855        O  0.57845606  0.26187673  0.44913756    -0.80200
O856        O  0.67812485  0.23273731  0.40999369    -0.80000
O857        O  0.63042918  0.12083525  0.40145803    -0.78600
Zn858      Zn  0.54272405  0.11114500  0.43574085     1.55700
O859        O  0.66451724  0.24519947  0.45267069    -0.80000
Cd860      Cd  0.61941870  0.17557097  0.39926041     1.59700
Cd861      Cd  0.52182762  0.17566278  0.40349346     1.59600
O862        O  0.59989061  0.17649184  0.36026640    -0.80000
O863        O  0.57062586  0.17054817  0.42301338    -1.90500
Cd864      Cd  0.59213691  0.21021162  0.45469187     1.59900
O865        O  0.53226387  0.17323836  0.36191502    -0.80000
O866        O  0.54949039  0.17394362  0.48794497    -0.78600
C867        C  0.95882031  0.07831428  0.41284574     0.83900
C868        C  0.61167955  0.08722859  0.41747194     0.83600
O869        O  0.51024495  0.10407852  0.47068490    -0.77600
C870        C  0.69112790  0.25449088  0.43214357     0.84400
O871        O  0.99520821  0.07712970  0.40980733    -0.77700
C872        C  0.56487875  0.17355598  0.34873365     0.84500
C873        C  0.55411622  0.26881484  0.43249824     0.84800
O874        O  0.52940089  0.23931761  0.41461704    -0.80100
O875        O  0.49712859  0.42320581  0.43485793    -0.77600
C876        C  0.61223140  0.48911772  0.48914449     0.83400
O877        O  0.65293151  0.04627238  0.41357296    -0.78700
O878        O  0.67951340  0.42711727  0.44915861    -0.80200
O879        O  0.55083835  0.32768494  0.40994172    -0.80000
O880        O  0.98670214  0.37546432  0.40129833    -0.78600
Zn881      Zn  0.56443216  0.46281781  0.43583862     1.55700
O882        O  0.57668873  0.34115176  0.45266419    -0.80000
Cd883      Cd  0.55246833  0.38644566  0.39920128     1.59700
Cd884      Cd  0.65008003  0.48405075  0.40368342     1.59600
O885        O  0.57327644  0.40618879  0.36025992    -0.80000
O886        O  0.59609075  0.43510651  0.42306421    -1.90500
Cd887      Cd  0.61418229  0.41350148  0.45471376     1.59900
O888        O  0.63758357  0.47385325  0.36208421    -0.80000
O889        O  0.62058900  0.45612151  0.48796988    -0.78600
C890        C  0.61550805  0.04688398  0.41303569     0.83900
C891        C  0.97169199  0.39393122  0.41742723     0.83600
O892        O  0.58973205  0.49519610  0.47079432    -0.77600
C893        C  0.55945776  0.31460568  0.43210575     0.84400
O894        O  0.57793180  0.01048163  0.41001489    -0.77700
C895        C  0.60542524  0.44126471  0.34881497     0.84500
C896        C  0.71087273  0.45163410  0.43260222     0.84800
O897        O  0.70617256  0.47653088  0.41481945    -0.80100
O898        O  0.57876411  0.08678300  0.56657026    -0.77600
C899        C  0.62810583  0.02091749  0.51225324     0.83400
O900        O  0.61163958  0.46380748  0.58782261    -0.78700
O901        O  0.75734151  0.08299572  0.55221748    -0.80200
O902        O  0.72809565  0.18244551  0.59139761    -0.80000
O903        O  0.61618628  0.13471339  0.60003256    -0.78600
Zn904      Zn  0.60652101  0.04722239  0.56555611     1.55700
O905        O  0.74047243  0.16893514  0.54867975    -0.80000
Cd906      Cd  0.67094540  0.12369794  0.60215053     1.59700
Cd907      Cd  0.67097048  0.02607708  0.59770103     1.59600
O908        O  0.67193142  0.10394918  0.64110569    -0.80000
O909        O  0.66590195  0.07499865  0.57831161    -1.90500
Cd910      Cd  0.70561999  0.09658675  0.54666451     1.59900
O911        O  0.66860042  0.03629272  0.63929079    -0.80000
O912        O  0.66944840  0.05392952  0.51342683    -0.78600
C913        C  0.57358757  0.46315910  0.58837698     0.83900
C914        C  0.58265268  0.11614765  0.58395388     0.83600
O915        O  0.59950204  0.01484201  0.53059373    -0.77600
C916        C  0.74979152  0.19550234  0.56922806     0.84400
O917        O  0.57238730  0.49954838  0.59139543    -0.77700
C918        C  0.66898183  0.06886292  0.65255409     0.84500
C919        C  0.76418939  0.05848977  0.56877384     0.84800
O920        O  0.73459913  0.03360842  0.58656781    -0.80100
O921        O  0.92246521  0.00867814  0.43470232    -0.77600
C922        C  0.87303367  0.39341716  0.48911271     0.83400
O923        O  0.88947078  0.35275529  0.41354201    -0.78700
O924        O  0.74379091  0.32629127  0.44912754    -0.80200
O925        O  0.77298285  0.45491460  0.40998384    -0.80000
O926        O  0.88486258  0.01917916  0.40134782    -0.78600
Zn927      Zn  0.89465300  0.44134060  0.43579798     1.55700
O928        O  0.76068520  0.42908645  0.45271131    -0.80000
Cd929      Cd  0.83016870  0.45338031  0.39921835     1.59700
Cd930      Cd  0.83017754  0.35575322  0.40363437     1.59600
O931        O  0.82936251  0.43276326  0.36025057    -0.80000
O932        O  0.83526153  0.40974286  0.42304387    -1.90500
Cd933      Cd  0.79553318  0.39158797  0.45469049     1.59900
O934        O  0.83274819  0.36846704  0.36205028    -0.80000
O935        O  0.83168205  0.38505531  0.48792124    -0.78600
C936        C  0.92753669  0.39014459  0.41297860     0.83900
C937        C  0.91848561  0.03414742  0.41735654     0.83600
O938        O  0.90165845  0.41599156  0.47078830    -0.77600
C939        C  0.75132561  0.44630231  0.43216818     0.84400
O940        O  0.92875798  0.42774140  0.40995982    -0.77700
C941        C  0.83243525  0.40069541  0.34879737     0.84500
C942        C  0.73691524  0.29495206  0.43254914     0.84800
O943        O  0.76649031  0.29967227  0.41473602    -0.80100
O944        O  0.00394440  0.42668944  0.56655632    -0.77600
C945        C  0.88888759  0.37747207  0.51222779     0.83400
O946        O  0.84812803  0.39379360  0.58788378    -0.78700
O947        O  0.82155447  0.24818493  0.55221036    -0.80200
O948        O  0.95028164  0.27733798  0.59138078    -0.80000
O949        O  0.51447893  0.38925486  0.59999312    -0.78600
Zn950      Zn  0.93664600  0.39892772  0.56555676     1.55700
O951        O  0.92431811  0.26491586  0.54868348    -0.80000
Cd952      Cd  0.94871484  0.33449796  0.60212388     1.59700
Cd953      Cd  0.85108403  0.33447343  0.59778463     1.59600
O954        O  0.92809747  0.33351594  0.64108968    -0.80000
O955        O  0.90502948  0.33954525  0.57831951    -1.90500
Cd956      Cd  0.88689583  0.29986254  0.54665237     1.59900
O957        O  0.86378161  0.33686711  0.63937907    -0.80000
O958        O  0.88051801  0.33611179  0.51339682    -0.78600
C959        C  0.88554043  0.43184164  0.58838223     0.83900
C960        C  0.52942773  0.42280085  0.58392627     0.83600
O961        O  0.91136428  0.40603361  0.53059406    -0.77600
C962        C  0.94158904  0.25560761  0.56922300     0.84400
O963        O  0.92312150  0.43303600  0.59141162    -0.77700
C964        C  0.89601360  0.33647912  0.65259206     0.84500
C965        C  0.79024295  0.24129075  0.56881804     0.84800
O966        O  0.79499245  0.27083326  0.58665966    -0.80100
O967        O  0.58946336  0.34205443  0.10152275    -0.77600
C968        C  0.54027503  0.22682839  0.15581964     0.83400
O969        O  0.55671855  0.18621340  0.08027236    -0.78700
O970        O  0.91094892  0.15959259  0.11583712    -0.80200
O971        O  0.94018915  0.28825862  0.07668203    -0.80000
O972        O  0.55207721  0.35243686  0.06799515    -0.78600
Zn973      Zn  0.56176810  0.27474078  0.10254044     1.55700
O974        O  0.92782262  0.26240534  0.11940553    -0.80000
Cd975      Cd  0.49732299  0.28666029  0.06591827     1.59700
Cd976      Cd  0.49735865  0.18907772  0.07038075     1.59600
O977        O  0.99630624  0.26589361  0.02697053    -0.80000
O978        O  0.50239227  0.24305315  0.08977374    -1.90500
Cd979      Cd  0.96267796  0.22490157  0.12142392     1.59900
O980        O  0.99973245  0.20162374  0.02878776    -0.80000
O981        O  0.99889327  0.21838848  0.15464476    -0.78600
C982        C  0.59475956  0.22363160  0.07973405     0.83900
C983        C  0.58558784  0.36746829  0.08409350     0.83600
O984        O  0.56886356  0.24944770  0.13749532    -0.77600
C985        C  0.91849934  0.27963599  0.09885243     0.84400
O986        O  0.59594602  0.26121688  0.07672522    -0.77700
C987        C  0.99929999  0.23377816  0.01552304     0.84500
C988        C  0.90411532  0.12825103  0.09926821     0.84800
O989        O  0.93372800  0.13296791  0.08148705    -0.80100
O990        O  0.67151018  0.26018619  0.23318856    -0.77600
C991        C  0.55622660  0.21091897  0.17890194     0.83400
O992        O  0.51566435  0.22737457  0.25441150    -0.78700
O993        O  0.98913705  0.08161134  0.21885217    -0.80200
O994        O  0.61774901  0.11087343  0.25802128    -0.80000
O995        O  0.68193661  0.22277299  0.26668506    -0.78600
Zn996      Zn  0.60419042  0.23246172  0.23217485     1.55700
O997        O  0.59196009  0.09855005  0.21528365    -0.80000
Cd998      Cd  0.61615890  0.16802223  0.26878851     1.59700
Cd999      Cd  0.51855548  0.16802748  0.26429650     1.59600
O1000       O  0.59538342  0.16706224  0.30774098    -0.80000
O1001       O  0.57255330  0.17308014  0.24492649    -1.90500
Cd1002     Cd  0.55442958  0.13337255  0.21327555     1.59900
O1003       O  0.53108583  0.17043566  0.30588577    -0.80000
O1004       O  0.54785685  0.16956035  0.18006724    -0.78600
C1005       C  0.55307577  0.26541794  0.25499206     0.83900
C1006       C  0.69694567  0.25629770  0.25059758     0.83600
O1007       O  0.57882894  0.23951997  0.19722655    -0.77600
C1008       C  0.60915834  0.08920425  0.23584312     0.84400
O1009       O  0.59065430  0.26659904  0.25801969    -0.77700
C1010       C  0.56325047  0.17005138  0.31916857     0.84500
C1011       C  0.95777655  0.07477518  0.23540612     0.84800
O1012       O  0.96246986  0.10438879  0.25318061    -0.80100
O1013       O  0.74608163  0.42013122  0.23331976    -0.77600
C1014       C  0.79545441  0.35439845  0.17890539     0.83400
O1015       O  0.77916684  0.29733518  0.25453427    -0.78700
O1016       O  0.92471563  0.41637819  0.21886727    -0.80200
O1017       O  0.89562802  0.01598620  0.25801126    -0.80000
O1018       O  0.78374568  0.46841898  0.26659014    -0.78600
Zn1019     Zn  0.77392789  0.38066130  0.23225583     1.55700
O1020       O  0.90797449  0.00239133  0.21530557    -0.80000
Cd1021     Cd  0.83842141  0.45729765  0.26876219     1.59700
Cd1022     Cd  0.83842915  0.35966516  0.26444555     1.59600
O1023       O  0.83919608  0.43759432  0.30774611    -0.80000
O1024       O  0.83333503  0.40851431  0.24497794    -1.90500
Cd1025     Cd  0.87303248  0.43003349  0.21331458     1.59900
O1026       O  0.83583645  0.36992049  0.30602417    -0.80000
O1027       O  0.83679533  0.38742159  0.18006707    -0.78600
C1028       C  0.74109914  0.29665503  0.25508399     0.83900
C1029       C  0.75008790  0.44966521  0.25061229     0.83600
O1030       O  0.76688240  0.34827964  0.19727765    -0.77600
C1031       C  0.91732010  0.02899361  0.23583864     0.84400
O1032       O  0.73988247  0.33302688  0.25813089    -0.77700
C1033       C  0.83613103  0.40249530  0.31923893     0.84500
C1034       C  0.93163765  0.39201429  0.23549567     0.84800
O1035       O  0.90211576  0.36726841  0.25335840    -0.80100
O1036       O  0.66446983  0.25688479  0.10148696    -0.77600
C1037       C  0.77955272  0.32261681  0.15578092     0.83400
O1038       O  0.82025971  0.37964243  0.08010402    -0.78700
O1039       O  0.84672910  0.26056770  0.11585402    -0.80200
O1040       O  0.71798430  0.16098924  0.07665956    -0.80000
O1041       O  0.65380911  0.20874726  0.06811689    -0.78600
Zn1042     Zn  0.73177873  0.29635192  0.10244696     1.55700
O1043       O  0.74396787  0.17453257  0.11935130    -0.80000
Cd1044     Cd  0.71955380  0.21972346  0.06593547     1.59700
Cd1045     Cd  0.81724388  0.31731225  0.07024559     1.59600
O1046       O  0.74012057  0.23933912  0.02696168    -0.80000
O1047       O  0.76329005  0.26846624  0.08971688    -1.90500
Cd1048     Cd  0.78138163  0.24689810  0.12138613     1.59900
O1049       O  0.80450390  0.30695302  0.02865996    -0.80000
O1050       O  0.78774440  0.28950588  0.15464234    -0.78600
C1051       C  0.78284514  0.38026864  0.07955699     0.83900
C1052       C  0.63892760  0.22744270  0.08416128     0.83600
O1053       O  0.75719967  0.32881909  0.13738645    -0.77600
C1054       C  0.72669002  0.14795253  0.09881048     0.84400
O1055       O  0.74528795  0.34386674  0.07651265    -0.77700
C1056       C  0.77222702  0.27435758  0.01545445     0.84500
C1057       C  0.87804945  0.28497289  0.09925023     0.84800
O1058       O  0.87330966  0.30974729  0.08139547    -0.80100
O1059       O  0.74944157  0.41657635  0.10132723    -0.77600
C1060       C  0.68376102  0.46599105  0.15576166     0.83400
O1061       O  0.62664158  0.44968759  0.08016554    -0.78700
O1062       O  0.74576979  0.09525479  0.11580916    -0.80200
O1063       O  0.84531122  0.06612744  0.07664635    -0.80000
O1064       O  0.79772285  0.45424441  0.06805395    -0.78600
Zn1065     Zn  0.70997336  0.44442763  0.10240444     1.55700
O1066       O  0.83173689  0.07843699  0.11936347    -0.80000
Cd1067     Cd  0.78660580  0.00892814  0.06588941     1.59700
Cd1068     Cd  0.68897028  0.00895039  0.07025749     1.59600
O1069       O  0.76686114  0.00974373  0.02691299    -0.80000
O1070       O  0.73783811  0.50383994  0.08968825    -1.90500
Cd1071     Cd  0.75939043  0.04354142  0.12134744     1.59900
O1072       O  0.69919879  0.00640824  0.02867817    -0.80000
O1073       O  0.71679298  0.00732406  0.15459357    -0.78600
C1074       C  0.62594852  0.41161446  0.07959872     0.83900
C1075       C  0.77898038  0.42058984  0.08403584     0.83600
O1076       O  0.67762080  0.43740501  0.13739323    -0.77600
C1077       C  0.85833212  0.08779587  0.09882678     0.84400
O1078       O  0.66231250  0.41038671  0.07653852    -0.77700
C1079       C  0.73175599  0.00671406  0.01544198     0.84500
C1080       C  0.72136679  0.10216570  0.09920507     0.84800
O1081       O  0.69658040  0.07263064  0.08135979    -0.80100
O1082       O  0.58630146  0.33510681  0.23321779    -0.77600
C1083       C  0.65200113  0.45012112  0.17889333     0.83400
O1084       O  0.70912502  0.49092145  0.25458101    -0.78700
O1085       O  0.59005856  0.01741958  0.21884501    -0.80200
O1086       O  0.99046554  0.38864346  0.25804428    -0.80000
O1087       O  0.53824915  0.32450113  0.26662689    -0.78600
Zn1088     Zn  0.62579031  0.40241274  0.23224058     1.55700
O1089       O  0.50401003  0.41463733  0.21535573    -0.80000
Cd1090     Cd  0.54921198  0.39024712  0.26877506     1.59700
Cd1091     Cd  0.64680930  0.48793194  0.26444399     1.59600
O1092       O  0.56880022  0.41088599  0.30774002    -0.80000
O1093       O  0.59795016  0.43396772  0.24498323    -1.90500
Cd1094     Cd  0.57637119  0.45205953  0.21331795     1.59900
O1095       O  0.63642524  0.47525585  0.30603578    -0.80000
O1096       O  0.61892881  0.45836762  0.18004866    -0.78600
C1097       C  0.70975702  0.45350848  0.25509916     0.83900
C1098       C  0.55689391  0.30958913  0.25056505     0.83600
O1099       O  0.65819688  0.42775977  0.19728385    -0.77600
C1100       C  0.97742738  0.39734680  0.23589387     0.84400
O1101       O  0.67336241  0.41593911  0.25813420    -0.77700
C1102       C  0.60381057  0.44301837  0.31924575     0.84500
C1103       C  0.61448543  0.04874721  0.23544050     0.84800
O1104       O  0.63927173  0.04400802  0.25328601    -0.80100
O1105       O  0.91589529  0.24976479  0.76811510    -0.77600
C1106       C  0.85009928  0.29898102  0.82249621     0.83400
O1107       O  0.79283933  0.28258162  0.74694934    -0.78700
O1108       O  0.91197422  0.42827564  0.78252278    -0.80200
O1109       O  0.51145103  0.39908718  0.74328019    -0.80000
O1110       O  0.96374778  0.28717592  0.73462260    -0.78600
Zn1111     Zn  0.87631169  0.27748395  0.76915418     1.55700
O1112       O  0.49796335  0.41145264  0.78600564    -0.80000
Cd1113     Cd  0.95270316  0.34192859  0.73253778     1.59700
Cd1114     Cd  0.85507273  0.34191145  0.73703300     1.59600
O1115       O  0.93290988  0.34291772  0.69359826    -0.80000
O1116       O  0.90402446  0.33686581  0.75640224    -1.90500
Cd1117     Cd  0.92562246  0.37657645  0.78805395     1.59900
O1118       O  0.86523015  0.33953083  0.69543245    -0.80000
O1119       O  0.88306770  0.34034543  0.82131756    -0.78600
C1120       C  0.79219375  0.24453065  0.74639923     0.83900
C1121       C  0.94522921  0.25365246  0.75071181     0.83600
O1122       O  0.84401067  0.27040760  0.80413678    -0.77600
C1123       C  0.52451817  0.42077678  0.76545115     0.84400
O1124       O  0.82857600  0.24332234  0.74335992    -0.77700
C1125       C  0.89780301  0.33994010  0.68215929     0.84500
C1126       C  0.88747576  0.43512477  0.76595903     0.84800
O1127       O  0.86260520  0.40553643  0.74816252    -0.80100
O1128       O  0.75254927  0.16791350  0.89991974    -0.77600
C1129       C  0.81832272  0.28305198  0.84561292     0.83400
O1130       O  0.87545448  0.32375925  0.92116417    -0.78700
O1131       O  0.75620862  0.35017979  0.88552906    -0.80200
O1132       O  0.65680216  0.22153461  0.92475626    -0.80000
O1133       O  0.70456077  0.15736965  0.93335702    -0.78600
Zn1134     Zn  0.79207837  0.23523021  0.89892711     1.55700
O1135       O  0.67027789  0.24735719  0.88202953    -0.80000
Cd1136     Cd  0.71556343  0.22313821  0.93549348     1.59700
Cd1137     Cd  0.81317194  0.32080933  0.93103422     1.59600
O1138       O  0.73534278  0.24387885  0.97444349    -0.80000
O1139       O  0.76424901  0.26679501  0.91165764    -1.90500
Cd1140     Cd  0.74262174  0.28485638  0.88000657     1.59900
O1141       O  0.80297004  0.30823799  0.97262561    -0.80000
O1142       O  0.78524516  0.29128611  0.84676849    -0.78600
C1143       C  0.87609516  0.28635368  0.92175867     0.83900
C1144       C  0.72316032  0.14242123  0.91728540     0.83600
O1145       O  0.82448116  0.26061962  0.86397503    -0.77600
C1146       C  0.64372645  0.23014189  0.90258568     0.84400
O1147       O  0.83970018  0.24878314  0.92480409    -0.77700
C1148       C  0.77042591  0.27603407  0.98588937     0.84500
C1149       C  0.78071705  0.38155500  0.90207719     0.84800
O1150       O  0.80560422  0.37687068  0.91987595    -0.80100
O1151       O  0.75571542  0.17487504  0.76821071    -0.77600
C1152       C  0.70648008  0.05967246  0.82246422     0.83400
O1153       O  0.72281132  0.01910483  0.74679071    -0.78700
O1154       O  0.57720991  0.49251771  0.78248496    -0.80200
O1155       O  0.60638203  0.12126329  0.74335648    -0.80000
O1156       O  0.71829226  0.18545299  0.73478241    -0.78600
Zn1157     Zn  0.72794533  0.10756913  0.76916895     1.55700
O1158       O  0.59393741  0.09526564  0.78604784    -0.80000
Cd1159     Cd  0.66353963  0.11970814  0.73261518     1.59700
Cd1160     Cd  0.66349023  0.02207660  0.73690965     1.59600
O1161       O  0.66257260  0.09915839  0.69363201    -0.80000
O1162       O  0.66856669  0.07599488  0.75640417    -1.90500
Cd1163     Cd  0.62889334  0.05783948  0.78807566     1.59900
O1164       O  0.66589297  0.03482609  0.69532565    -0.80000
O1165       O  0.66513236  0.05135167  0.82131425    -0.78600
C1166       C  0.76085502  0.05652230  0.74629319     0.83900
C1167       C  0.75183424  0.20037715  0.75084983     0.83600
O1168       O  0.73504009  0.08217515  0.80410112    -0.77600
C1169       C  0.58463643  0.11254746  0.76550888     0.84400
O1170       O  0.76203319  0.09409664  0.74327235    -0.77700
C1171       C  0.66552282  0.06707114  0.68212099     0.84500
C1172       C  0.57030739  0.46122227  0.76586315     0.84800
O1173       O  0.59984630  0.46598016  0.74801696    -0.80100
O1174       O  0.83777491  0.09314097  0.89988546    -0.77600
C1175       C  0.72243095  0.04377195  0.84556325     0.83400
O1176       O  0.68193298  0.06019838  0.92119621    -0.78700
O1177       O  0.65537342  0.41452333  0.88555860    -0.80200
O1178       O  0.78406834  0.44371935  0.92465177    -0.80000
O1179       O  0.84829918  0.05560226  0.93326900    -0.78600
Zn1180     Zn  0.77044227  0.06533926  0.89884864     1.55700
O1181       O  0.75812870  0.43133525  0.88194704    -0.80000
Cd1182     Cd  0.78253228  0.00088713  0.93541546     1.59700
Cd1183     Cd  0.68491941  0.00088608  0.93107730     1.59600
O1184       O  0.76198788  0.50002851  0.97439758    -0.80000
O1185       O  0.73885730  0.00595642  0.91161308    -1.90500
Cd1186     Cd  0.72066644  0.46624168  0.87995753     1.59900
O1187       O  0.69768978  0.50340981  0.97265541    -0.80000
O1188       O  0.71408283  0.50241888  0.84673486    -0.78600
C1189       C  0.71934137  0.09824897  0.92172847     0.83900
C1190       C  0.86325122  0.08919980  0.91724282     0.83600
O1191       O  0.74502247  0.07237634  0.86389260    -0.77600
C1192       C  0.77539102  0.42201259  0.90248508     0.86200
O1193       O  0.75692440  0.09943654  0.92472778    -0.77700
C1194       C  0.72993425  0.50307563  0.98588130     0.84500
C1195       C  0.62407083  0.40764153  0.90216779     0.84800
O1196       O  0.62882325  0.43720859  0.91999383    -0.80100
O1197       O  0.91250516  0.25308294  0.89997073    -0.77600
C1198       C  0.96172312  0.18733559  0.84558756     0.83400
O1199       O  0.94545918  0.13020153  0.92124481    -0.78700
O1200       O  0.59102903  0.24919986  0.88556392    -0.80200
O1201       O  0.56190471  0.34883287  0.92475025    -0.80000
O1202       O  0.95001098  0.30115933  0.93335469    -0.78600
Zn1203     Zn  0.94028510  0.21356645  0.89895129     1.55700
O1204       O  0.57430511  0.33525756  0.88205280    -0.80000
Cd1205     Cd  0.00474396  0.29011480  0.93549164     1.59700
Cd1206     Cd  0.00476605  0.19249470  0.93115332     1.59600
O1207       O  0.50571926  0.27049185  0.97445813    -0.80000
O1208       O  0.99968261  0.24135818  0.91169194    -1.90500
Cd1209     Cd  0.53936114  0.26289493  0.88002226     1.59900
O1210       O  0.50236851  0.20282268  0.97274281    -0.80000
O1211       O  0.50308017  0.22033113  0.84675319    -0.78600
C1212       C  0.90740202  0.12954746  0.92175012     0.83900
C1213       C  0.91643585  0.28251798  0.91731084     0.83600
O1214       O  0.93317827  0.18120961  0.86397454    -0.77600
C1215       C  0.58361953  0.36185332  0.90258754     0.84400
O1216       O  0.90619377  0.16592392  0.92480102    -0.77700
C1217       C  0.50275640  0.23544462  0.98595715     0.84500
C1218       C  0.59793735  0.22480808  0.90218022     0.84800
O1219       O  0.56840880  0.20004422  0.92003321    -0.80100
O1220       O  0.83054604  0.08984831  0.76808466    -0.77600
C1221       C  0.94576994  0.15556462  0.82245811     0.83400
O1222       O  0.98642289  0.21261391  0.74680749    -0.78700
O1223       O  0.51284038  0.09343601  0.78249364    -0.80200
O1224       O  0.88413920  0.49393272  0.74336140    -0.80000
O1225       O  0.81992095  0.04161100  0.73477740    -0.78600
Zn1226     Zn  0.89787758  0.12930608  0.76913285     1.55700
O1227       O  0.91005125  0.00749879  0.78606934    -0.80000
Cd1228     Cd  0.88568390  0.05265220  0.73260127     1.59700
Cd1229     Cd  0.98335844  0.15026324  0.73694040     1.59600
O1230       O  0.90622728  0.07235737  0.69361402    -0.80000
O1231       O  0.92938663  0.10141341  0.75639143    -1.90500
Cd1232     Cd  0.94752609  0.07984669  0.78804400     1.59900
O1233       O  0.97057967  0.13999599  0.69536172    -0.80000
O1234       O  0.95401021  0.12249211  0.82128510    -0.78600
C1235       C  0.94903513  0.21329249  0.74624827     0.83900
C1236       C  0.80502190  0.06035116  0.75077414     0.83600
O1237       O  0.92330932  0.16171560  0.80410629    -0.77600
C1238       C  0.89279909  0.48090718  0.76553359     0.84400
O1239       O  0.91144643  0.17691079  0.74323623    -0.77700
C1240       C  0.93830750  0.10744134  0.68213316     0.84500
C1241       C  0.54416836  0.11786268  0.76590107     0.84800
O1242       O  0.53943045  0.14266269  0.74806159    -0.80100
O1243       O  0.91881376  0.50150839  0.56656760    -0.77600
C1244       C  0.98461412  0.61670564  0.51221003     0.83400
O1245       O  0.54163201  0.65735341  0.58787561    -0.78700
O1246       O  0.92252203  0.68384396  0.55220540    -0.80200
O1247       O  0.82300001  0.55514179  0.59135591    -0.80000
O1248       O  0.87066004  0.99091611  0.59991876    -0.78600
Zn1249     Zn  0.95830928  0.56883425  0.56553787     1.55700
O1250       O  0.83655665  0.58106669  0.54864884    -0.80000
Cd1251     Cd  0.88171415  0.55668038  0.60210016     1.59700
Cd1252     Cd  0.97930555  0.65432104  0.59776224     1.59600
O1253       O  0.90140477  0.57719655  0.64108977    -0.80000
O1254       O  0.93046003  0.60037399  0.57829708    -1.90500
Cd1255     Cd  0.90891261  0.61852247  0.54663818     1.59900
O1256       O  0.96905073  0.64153384  0.63934251    -0.80000
O1257       O  0.95155927  0.62497750  0.51338002    -0.78600
C1258       C  0.54229531  0.61995591  0.58841258     0.83900
C1259       C  0.88935351  0.97599912  0.58389967     0.83600
O1260       O  0.99073982  0.59424369  0.53057053    -0.77600
C1261       C  0.80997121  0.56381085  0.56918899     0.84400
O1262       O  0.50591013  0.58236877  0.59142221    -0.77700
C1263       C  0.93649721  0.60927115  0.65257140     0.84500
C1264       C  0.94691836  0.71515010  0.56881830     0.84800
O1265       O  0.97170037  0.71039645  0.58666291    -0.80100
O1266       O  0.58218809  0.58329857  0.43477049    -0.77600
C1267       C  0.51640945  0.63262699  0.48908390     0.83400
O1268       O  0.95947170  0.61636574  0.41335829    -0.78700
O1269       O  0.57845317  0.76187766  0.44913642    -0.80200
O1270       O  0.67812365  0.73273965  0.40999419    -0.80000
O1271       O  0.63043125  0.62083783  0.40145829    -0.78600
Zn1272     Zn  0.54272868  0.61114704  0.43574330     1.55700
O1273       O  0.66451581  0.74520288  0.45267097    -0.80000
Cd1274     Cd  0.61941862  0.67557242  0.39926120     1.59700
Cd1275     Cd  0.52182575  0.67566109  0.40349467     1.59600
O1276       O  0.59989000  0.67649311  0.36026744    -0.80000
O1277       O  0.57062586  0.67054923  0.42301436    -1.90500
Cd1278     Cd  0.59213577  0.71021438  0.45469204     1.59900
O1279       O  0.53226202  0.67323694  0.36191639    -0.80000
O1280       O  0.54948931  0.67394796  0.48794507    -0.78600
C1281       C  0.95882268  0.57831126  0.41284815     0.83900
C1282       C  0.61168519  0.58723268  0.41747347     0.83600
O1283       O  0.51025018  0.60408059  0.47068747    -0.77600
C1284       C  0.69112636  0.75449391  0.43214384     0.84400
O1285       O  0.99521143  0.57712770  0.40981135    -0.77700
C1286       C  0.56487749  0.67355586  0.34873490     0.84500
C1287       C  0.55411087  0.76881336  0.43249780     0.84800
O1288       O  0.52939480  0.73931460  0.41461749    -0.80100
O1289       O  0.49712335  0.92320328  0.43485835    -0.77600
C1290       C  0.61222804  0.98911676  0.48914364     0.83400
O1291       O  0.65293739  0.54627631  0.41357461    -0.78700
O1292       O  0.67950768  0.92711491  0.44915743    -0.80200
O1293       O  0.55083077  0.82768206  0.40994101    -0.80000
O1294       O  0.98669644  0.87546404  0.40129729    -0.78600
Zn1295     Zn  0.56442701  0.96281509  0.43583823     1.55700
O1296       O  0.57668226  0.84114987  0.45266333    -0.80000
Cd1297     Cd  0.55246165  0.88644327  0.39920024     1.59700
Cd1298     Cd  0.65007371  0.98404681  0.40368219     1.59600
O1299       O  0.57327015  0.90618600  0.36025859    -0.80000
O1300       O  0.59608467  0.93510350  0.42306322    -1.90500
Cd1301     Cd  0.61417667  0.91349944  0.45471278     1.59900
O1302       O  0.63757830  0.97384950  0.36208302    -0.80000
O1303       O  0.62058513  0.95612024  0.48796903    -0.78600
C1304       C  0.61551397  0.54688807  0.41303700     0.83900
C1305       C  0.97168672  0.89393040  0.41742690     0.83600
O1306       O  0.58972834  0.99519487  0.47079357    -0.77600
C1307       C  0.55945085  0.81460343  0.43210506     0.84400
O1308       O  0.57793780  0.51048575  0.41001576    -0.77700
C1309       C  0.60541975  0.94126137  0.34881370     0.84500
C1310       C  0.71086710  0.95163228  0.43260122     0.84800
O1311       O  0.70616660  0.97652864  0.41481839    -0.80100
O1312       O  0.57876445  0.58678148  0.56657104    -0.77600
C1313       C  0.62810849  0.52091801  0.51225414     0.83400
O1314       O  0.61163808  0.96380848  0.58782222    -0.78700
O1315       O  0.75734327  0.58299642  0.55221875    -0.80200
O1316       O  0.72809623  0.68244525  0.59139816    -0.80000
O1317       O  0.61618727  0.63471374  0.60003244    -0.78600
Zn1318     Zn  0.60652204  0.54722140  0.56555692     1.55700
O1319       O  0.74047281  0.66893520  0.54868022    -0.80000
Cd1320     Cd  0.67094595  0.62369760  0.60215112     1.59700
Cd1321     Cd  0.67097170  0.52607645  0.59770145     1.59600
O1322       O  0.67193162  0.60394828  0.64110622    -0.80000
O1323       O  0.66590302  0.57499830  0.57831235    -1.90500
Cd1324     Cd  0.70562169  0.59658708  0.54666566     1.59900
O1325       O  0.66860113  0.53629199  0.63929115    -0.80000
O1326       O  0.66945092  0.55393024  0.51342791    -0.78600
C1327       C  0.57358633  0.96316068  0.58837645     0.83900
C1328       C  0.58265340  0.61614720  0.58395398     0.83600
O1329       O  0.59950425  0.51484208  0.53059441    -0.77600
C1330       C  0.74979174  0.69550236  0.56922850     0.84400
O1331       O  0.57238655  0.99955019  0.59139484    -0.77700
C1332       C  0.66898224  0.56886195  0.65255450     0.84500
C1333       C  0.76419105  0.55849011  0.56877488     0.84800
O1334       O  0.73460060  0.53360817  0.58656858    -0.80100
O1335       O  0.92246679  0.50867464  0.43470409    -0.77600
C1336       C  0.87303161  0.89342067  0.48911300     0.83400
O1337       O  0.88946584  0.85275666  0.41354142    -0.78700
O1338       O  0.74378942  0.82629393  0.44912792    -0.80200
O1339       O  0.77297841  0.95491496  0.40998320    -0.80000
O1340       O  0.88486642  0.51917575  0.40134834    -0.78600
Zn1341     Zn  0.89465051  0.94134370  0.43579761     1.55700
O1342       O  0.76068119  0.92908743  0.45271088    -0.80000
Cd1343     Cd  0.83016546  0.95338305  0.39921756     1.59700
Cd1344     Cd  0.83017409  0.85575661  0.40363358     1.59600
O1345       O  0.82936041  0.93276665  0.36024944    -0.80000
O1346       O  0.83525886  0.90974612  0.42304347    -1.90500
Cd1347     Cd  0.79553086  0.89159078  0.45469048     1.59900
O1348       O  0.83274580  0.86847036  0.36204944    -0.80000
O1349       O  0.83167999  0.88505893  0.48792155    -0.78600
C1350       C  0.92753221  0.89014537  0.41297835     0.83900
C1351       C  0.91848825  0.53414398  0.41735791     0.83600
O1352       O  0.90165620  0.91599503  0.47078845    -0.77600
C1353       C  0.75132085  0.94630210  0.43216748     0.84400
O1354       O  0.92875472  0.92774283  0.40995981    -0.77700
C1355       C  0.83243342  0.90069860  0.34879636     0.84500
C1356       C  0.73691328  0.79495519  0.43254909     0.84800
O1357       O  0.76648747  0.79967586  0.41473527    -0.80100
O1358       O  0.00394238  0.92669179  0.56655671    -0.77600
C1359       C  0.88888566  0.87747525  0.51222813     0.83400
O1360       O  0.84812544  0.89379257  0.58788398    -0.78700
O1361       O  0.82155365  0.74818636  0.55220993    -0.80200
O1362       O  0.95028161  0.77734011  0.59138068    -0.80000
O1363       O  0.51447802  0.88925630  0.59999250    -0.78600
Zn1364     Zn  0.93664385  0.89892910  0.56555719     1.55700
O1365       O  0.92431760  0.76491760  0.54868346    -0.80000
Cd1366     Cd  0.94871404  0.83449965  0.60212368     1.59700
Cd1367     Cd  0.85108269  0.83447345  0.59778503     1.59600
O1368       O  0.92809724  0.83351771  0.64108967    -0.80000
O1369       O  0.90502821  0.83954619  0.57831937    -1.90500
Cd1370     Cd  0.88689514  0.79986456  0.54665195     1.59900
O1371       O  0.86378082  0.83686782  0.63937943    -0.80000
O1372       O  0.88051713  0.83611519  0.51339674    -0.78600
C1373       C  0.88553787  0.93184043  0.58838305     0.83900
C1374       C  0.52942622  0.92280271  0.58392601     0.83600
O1375       O  0.91136158  0.90603632  0.53059480    -0.77600
C1376       C  0.94158901  0.75560966  0.56922296     0.84400
O1377       O  0.92311850  0.93303440  0.59141363    -0.77700
C1378       C  0.89601322  0.83648041  0.65259225     0.84500
C1379       C  0.79024256  0.74129113  0.56881824     0.84800
O1380       O  0.79499204  0.77083296  0.58666030    -0.80100
O1381       O  0.58945932  0.84205922  0.10152773    -0.77600
C1382       C  0.54027122  0.72683037  0.15582334     0.83400
O1383       O  0.55671952  0.68621874  0.08027534    -0.78700
O1384       O  0.91094657  0.65959413  0.11583797    -0.80200
O1385       O  0.94018892  0.78826107  0.07668443    -0.80000
O1386       O  0.55207685  0.85243829  0.06799659    -0.78600
Zn1387     Zn  0.56176591  0.77474557  0.10254526     1.55700
O1388       O  0.92782121  0.76240700  0.11940782    -0.80000
Cd1389     Cd  0.49732209  0.78666234  0.06592046     1.59700
Cd1390     Cd  0.49735918  0.68908147  0.07038340     1.59600
O1391       O  0.99630507  0.76589533  0.02697260    -0.80000
O1392       O  0.50239135  0.74305592  0.08977652    -1.90500
Cd1393     Cd  0.96267559  0.72490261  0.12142612     1.59900
O1394       O  0.99973387  0.70162700  0.02879040    -0.80000
O1395       O  0.99888858  0.71838720  0.15464737    -0.78600
C1396       C  0.59476066  0.72363695  0.07973871     0.83900
C1397       C  0.58558568  0.86747131  0.08409637     0.83600
O1398       O  0.56886065  0.74945313  0.13750023    -0.77600
C1399       C  0.91849854  0.77963795  0.09885462     0.84400
O1400       O  0.59594809  0.76122324  0.07673240    -0.77700
C1401       C  0.99930016  0.73378041  0.01552536     0.84500
C1402       C  0.90411446  0.62825287  0.09926921     0.84800
O1403       O  0.93372848  0.63297036  0.08148882    -0.80100
O1404       O  0.67150854  0.76018863  0.23319178    -0.77600
C1405       C  0.55622301  0.71092045  0.17890527     0.83400
O1406       O  0.51566089  0.72737229  0.25441269    -0.78700
O1407       O  0.98913642  0.58161073  0.21885366    -0.80200
O1408       O  0.61774785  0.61087374  0.25802236    -0.80000
O1409       O  0.68193654  0.72277289  0.26668609    -0.78600
Zn1410     Zn  0.60418847  0.73246238  0.23217768     1.55700
O1411       O  0.59195949  0.59855114  0.21528462    -0.80000
Cd1412     Cd  0.61615804  0.66802262  0.26878975     1.59700
Cd1413     Cd  0.51855316  0.66802613  0.26429812     1.59600
O1414       O  0.59538229  0.66706289  0.30774217    -0.80000
O1415       O  0.57255181  0.67308001  0.24492825    -1.90500
Cd1416     Cd  0.55442825  0.63337321  0.21327715     1.59900
O1417       O  0.53108367  0.67043461  0.30588731    -0.80000
O1418       O  0.54785324  0.66956178  0.18007007    -0.78600
C1419       C  0.55307225  0.76541561  0.25499415     0.83900
C1420       C  0.69694498  0.75629878  0.25059954     0.83600
O1421       O  0.57882643  0.73952131  0.19722975    -0.77600
C1422       C  0.60915758  0.58920500  0.23584405     0.84400
O1423       O  0.59065024  0.76659640  0.25802376    -0.77700
C1424       C  0.56324884  0.67005117  0.31916990     0.84500
C1425       C  0.95777578  0.57477374  0.23540772     0.84800
O1426       O  0.96246846  0.60438703  0.25318222    -0.80100
O1427       O  0.74607893  0.92012813  0.23331974    -0.77600
C1428       C  0.79545313  0.85439775  0.17890565     0.83400
O1429       O  0.77916675  0.79733577  0.25453462    -0.78700
O1430       O  0.92471453  0.91637935  0.21886501    -0.80200
O1431       O  0.89562793  0.51598395  0.25801287    -0.80000
O1432       O  0.78374525  0.96842071  0.26658778    -0.78600
Zn1433     Zn  0.77392685  0.88065973  0.23225645     1.55700
O1434       O  0.90797492  0.50238960  0.21530713    -0.80000
Cd1435     Cd  0.83842121  0.95730004  0.26876058     1.59700
Cd1436     Cd  0.83842923  0.85966694  0.26444479     1.59600
O1437       O  0.83919489  0.93759724  0.30774476    -0.80000
O1438       O  0.83333470  0.90851574  0.24497712    -1.90500
Cd1439     Cd  0.87303135  0.93003516  0.21331335     1.59900
O1440       O  0.83583677  0.86992402  0.30602339    -0.80000
O1441       O  0.83679292  0.88742348  0.18006612    -0.78600
C1442       C  0.74109912  0.79665569  0.25508566     0.83900
C1443       C  0.75008602  0.94966402  0.25061112     0.83600
O1444       O  0.76688191  0.84827649  0.19727895    -0.77600
C1445       C  0.91732003  0.52899170  0.23584022     0.84400
O1446       O  0.73988333  0.83302779  0.25813325    -0.77700
C1447       C  0.83613020  0.90249880  0.31923787     0.84500
C1448       C  0.93163695  0.89201589  0.23549353     0.84800
O1449       O  0.90211568  0.86727080  0.25335678    -0.80100
O1450       O  0.66447202  0.75688721  0.10148997    -0.77600
C1451       C  0.77955174  0.82261650  0.15578106     0.83400
O1452       O  0.82025900  0.87964214  0.08010340    -0.78700
O1453       O  0.84672782  0.76056870  0.11585565    -0.80200
O1454       O  0.71798031  0.66098828  0.07665931    -0.80000
O1455       O  0.65380792  0.70875068  0.06811873    -0.78600
Zn1456     Zn  0.73178043  0.79635340  0.10244678     1.55700
O1457       O  0.74396639  0.67453127  0.11935051    -0.80000
Cd1458     Cd  0.71955141  0.71972380  0.06593623     1.59700
Cd1459     Cd  0.81724303  0.81731160  0.07024594     1.59600
O1460       O  0.74011757  0.73933886  0.02696230    -0.80000
O1461       O  0.76328951  0.76846569  0.08971727    -1.90500
Cd1462     Cd  0.78137930  0.74689679  0.12138676     1.59900
O1463       O  0.80450300  0.80695104  0.02866028    -0.80000
O1464       O  0.78773854  0.78950218  0.15464376    -0.78600
C1465       C  0.78284430  0.88026797  0.07955543     0.83900
C1466       C  0.63892828  0.72744640  0.08416423     0.83600
O1467       O  0.75720396  0.82882278  0.13738504    -0.77600
C1468       C  0.72668730  0.64795137  0.09880973     0.84400
O1469       O  0.74528754  0.84386570  0.07651101    -0.77700
C1470       C  0.77222511  0.77435630  0.01545491     0.84500
C1471       C  0.87804834  0.78497404  0.09925198     0.84800
O1472       O  0.87330851  0.80974766  0.08139671    -0.80100
O1473       O  0.74943972  0.91657465  0.10132561    -0.77600
C1474       C  0.68376240  0.96598988  0.15576201     0.83400
O1475       O  0.62664158  0.94969020  0.08016776    -0.78700
O1476       O  0.74576780  0.59525409  0.11580794    -0.80200
O1477       O  0.84531182  0.56612866  0.07664672    -0.80000
O1478       O  0.79772151  0.95424379  0.06805275    -0.78600
Zn1479     Zn  0.70997283  0.94442699  0.10240438     1.55700
O1480       O  0.83173562  0.57843797  0.11936349    -0.80000
Cd1481     Cd  0.78660673  0.50892853  0.06588963     1.59700
Cd1482     Cd  0.68896993  0.50894940  0.07025632     1.59600
O1483       O  0.76686254  0.50974281  0.02691292    -0.80000
O1484       O  0.73783812  0.00383973  0.08968874    -1.90500
Cd1485     Cd  0.75938913  0.54354153  0.12134685     1.59900
O1486       O  0.69920013  0.50640735  0.02867737    -0.80000
O1487       O  0.71679183  0.50732505  0.15459310    -0.78600
C1488       C  0.62594702  0.91161640  0.07960061     0.83900
C1489       C  0.77897881  0.92058872  0.08403427     0.83600
O1490       O  0.67762217  0.93740412  0.13739346    -0.77600
C1491       C  0.85833165  0.58779720  0.09882717     0.84400
O1492       O  0.66230998  0.91038711  0.07653918    -0.77700
C1493       C  0.73175754  0.50671297  0.01544157     0.84500
C1494       C  0.72136457  0.60216466  0.09920389     0.84800
O1495       O  0.69657839  0.57262941  0.08135856    -0.80100
O1496       O  0.58630029  0.83510378  0.23321887    -0.77600
C1497       C  0.65200186  0.95011953  0.17889330     0.83400
O1498       O  0.70912310  0.99091998  0.25458022    -0.78700
O1499       O  0.59005765  0.51742000  0.21884622    -0.80200
O1500       O  0.99046400  0.88864374  0.25804186    -0.80000
O1501       O  0.53824474  0.82449918  0.26662588    -0.78600
Zn1502     Zn  0.62578870  0.90241000  0.23224017     1.55700
O1503       O  0.50400955  0.91463830  0.21535350    -0.80000
Cd1504     Cd  0.54920890  0.89024548  0.26877327     1.59700
Cd1505     Cd  0.64680715  0.98792929  0.26444335     1.59600
O1506       O  0.56879548  0.91088378  0.30773841    -0.80000
O1507       O  0.59794830  0.93396548  0.24498200    -1.90500
Cd1508     Cd  0.57637097  0.95205887  0.21331658     1.59900
O1509       O  0.63642191  0.97525207  0.30603484    -0.80000
O1510       O  0.61893041  0.95836732  0.18004843    -0.78600
C1511       C  0.70975516  0.95350711  0.25509828     0.83900
C1512       C  0.55689103  0.80958670  0.25056560     0.83600
O1513       O  0.65819588  0.92775640  0.19728346    -0.77600
C1514       C  0.97742648  0.89734787  0.23589153     0.84400
O1515       O  0.67336069  0.91593785  0.25813402    -0.77700
C1516       C  0.60380611  0.94301525  0.31924447     0.84500
C1517       C  0.61448518  0.54874821  0.23544125     0.84800
O1518       O  0.63927277  0.54400989  0.25328627    -0.80100
O1519       O  0.91589717  0.74976665  0.76811571    -0.77600
C1520       C  0.85009907  0.79898089  0.82249654     0.83400
O1521       O  0.79283955  0.78258056  0.74694956    -0.78700
O1522       O  0.91197349  0.92827496  0.78252325    -0.80200
O1523       O  0.51145048  0.89908821  0.74328034    -0.80000
O1524       O  0.96374855  0.78717739  0.73462266    -0.78600
Zn1525     Zn  0.87631243  0.77748459  0.76915442     1.55700
O1526       O  0.49796320  0.91145292  0.78600605    -0.80000
Cd1527     Cd  0.95270318  0.84192960  0.73253778     1.59700
Cd1528     Cd  0.85507247  0.84191082  0.73703358     1.59600
O1529       O  0.93290990  0.84291910  0.69359831    -0.80000
O1530       O  0.90402469  0.83686613  0.75640256    -1.90500
Cd1531     Cd  0.92562237  0.87657619  0.78805438     1.59900
O1532       O  0.86522977  0.83953120  0.69543287    -0.80000
O1533       O  0.88306767  0.84034524  0.82131810    -0.78600
C1534       C  0.79219467  0.74452997  0.74639923     0.83900
C1535       C  0.94523098  0.75365445  0.75071231     0.83600
O1536       O  0.84401075  0.77040770  0.80413700    -0.77600
C1537       C  0.52451769  0.92077754  0.76545136     0.84400
O1538       O  0.82857730  0.74332240  0.74335993    -0.77700
C1539       C  0.89780281  0.83994117  0.68215951     0.84500
C1540       C  0.88747392  0.93512324  0.76595992     0.84800
O1541       O  0.86260318  0.90553462  0.74816361    -0.80100
O1542       O  0.75254633  0.66791107  0.89991900    -0.77600
C1543       C  0.81832204  0.78305162  0.84561311     0.83400
O1544       O  0.87545274  0.82375679  0.92116517    -0.78700
O1545       O  0.75620698  0.85017926  0.88553025    -0.80200
O1546       O  0.65680201  0.72153334  0.92475669    -0.80000
O1547       O  0.70455998  0.65736781  0.93335740    -0.78600
Zn1548     Zn  0.79207611  0.73522792  0.89892670     1.55700
O1549       O  0.67027746  0.74735691  0.88203012    -0.80000
Cd1550     Cd  0.71556291  0.72313652  0.93549387     1.59700
Cd1551     Cd  0.81317049  0.82080801  0.93103482     1.59600
O1552       O  0.73534145  0.74387709  0.97444388    -0.80000
O1553       O  0.76424799  0.76679374  0.91165799    -1.90500
Cd1554     Cd  0.74262125  0.78485637  0.88000717     1.59900
O1555       O  0.80296832  0.80823660  0.97262615    -0.80000
O1556       O  0.78524563  0.79128748  0.84676913    -0.78600
C1557       C  0.87609325  0.78635104  0.92175891     0.83900
C1558       C  0.72315840  0.64241903  0.91728519     0.83600
O1559       O  0.82447893  0.76061731  0.86397463    -0.77600
C1560       C  0.64372628  0.73014139  0.90258638     0.84400
O1561       O  0.83969818  0.74878018  0.92480327    -0.77700
C1562       C  0.77042426  0.77603253  0.98588984     0.84500
C1563       C  0.78071536  0.88155449  0.90207840     0.84800
O1564       O  0.80560283  0.87687008  0.91987694    -0.80100
O1565       O  0.75571697  0.67487444  0.76821075    -0.77600
C1566       C  0.70648252  0.55967272  0.82246427     0.83400
O1567       O  0.72281440  0.51910489  0.74679054    -0.78700
O1568       O  0.57720901  0.99251848  0.78248513    -0.80200
O1569       O  0.60638436  0.62126357  0.74335705    -0.80000
O1570       O  0.71829370  0.68545161  0.73478225    -0.78600
Zn1571     Zn  0.72794734  0.60756878  0.76916896     1.55700
O1572       O  0.59393998  0.59526598  0.78604837    -0.80000
Cd1573     Cd  0.66354089  0.61970687  0.73261556     1.59700
Cd1574     Cd  0.66349217  0.52207557  0.73690986     1.59600
O1575       O  0.66257291  0.59915704  0.69363245    -0.80000
O1576       O  0.66856850  0.57599385  0.75640437    -1.90500
Cd1577     Cd  0.62889478  0.55783853  0.78807569     1.59900
O1578       O  0.66589407  0.53482515  0.69532591    -0.80000
O1579       O  0.66513455  0.55135126  0.82131420    -0.78600
C1580       C  0.76085798  0.55652264  0.74629316     0.83900
C1581       C  0.75183559  0.70037621  0.75084974     0.83600
O1582       O  0.73504252  0.58217555  0.80410122    -0.77600
C1583       C  0.58463923  0.61254831  0.76550957     0.84400
O1584       O  0.76203567  0.59409674  0.74327238    -0.77700
C1585       C  0.66552334  0.56707004  0.68212136     0.84500
C1586       C  0.57030647  0.96122326  0.76586316     0.84800
O1587       O  0.59984494  0.96598150  0.74801662    -0.80100
O1588       O  0.83777625  0.59314291  0.89988770    -0.77600
C1589       C  0.72243355  0.54377242  0.84556326     0.83400
O1590       O  0.68193243  0.56019602  0.92119583    -0.78700
O1591       O  0.65537111  0.91452363  0.88555970    -0.80200
O1592       O  0.78406736  0.94371994  0.92465259    -0.80000
O1593       O  0.84830096  0.55560087  0.93326910    -0.78600
Zn1594     Zn  0.77044349  0.56533962  0.89884924     1.55700
O1595       O  0.75812554  0.93133392  0.88194834    -0.80000
Cd1596     Cd  0.78253405  0.50088643  0.93541509     1.59700
Cd1597     Cd  0.68492088  0.50088473  0.93107706     1.59600
O1598       O  0.76198605  0.00002982  0.97439786    -0.80000
O1599       O  0.73885924  0.50595619  0.91161285    -1.90500
Cd1600     Cd  0.72066403  0.96624137  0.87995812     1.59900
O1601       O  0.69768797  0.00341113  0.97265579    -0.80000
O1602       O  0.71408005  0.00241830  0.84673505    -0.78600
C1603       C  0.71934024  0.59824712  0.92172842     0.83900
C1604       C  0.86325268  0.58920011  0.91724427     0.83600
O1605       O  0.74502475  0.57237670  0.86389275    -0.77600
C1606       C  0.77538904  0.92201217  0.90248619     0.86200
O1607       O  0.75692355  0.59943555  0.92472822    -0.77700
C1608       C  0.72993246  0.00307693  0.98588166     0.84500
C1609       C  0.62406869  0.90764230  0.90216883     0.84800
O1610       O  0.62882118  0.93720995  0.91999453    -0.80100
O1611       O  0.91250443  0.75308062  0.89997197    -0.77600
C1612       C  0.96172394  0.68733509  0.84558926     0.83400
O1613       O  0.94546047  0.63020146  0.92124756    -0.78700
O1614       O  0.59102885  0.74919993  0.88556539    -0.80200
O1615       O  0.56190282  0.84883366  0.92475173    -0.80000
O1616       O  0.95000900  0.80115766  0.93335590    -0.78600
Zn1617     Zn  0.94028538  0.71356507  0.89895328     1.55700
O1618       O  0.57430400  0.83525759  0.88205460    -0.80000
Cd1619     Cd  0.00474291  0.79011479  0.93549342     1.59700
Cd1620     Cd  0.00476695  0.69249512  0.93115593     1.59600
O1621       O  0.50571840  0.77049273  0.97446003    -0.80000
O1622       O  0.99968286  0.74135800  0.91169401    -1.90500
Cd1623     Cd  0.53936095  0.76289499  0.88002409     1.59900
O1624       O  0.50237003  0.70282456  0.97274542    -0.80000
O1625       O  0.50308027  0.72033194  0.84675475    -0.78600
C1626       C  0.90740335  0.62954742  0.92175244     0.83900
C1627       C  0.91643427  0.78251568  0.91731181     0.83600
O1628       O  0.93317909  0.68120737  0.86397663    -0.77600
C1629       C  0.58361766  0.86185388  0.90258904     0.84400
O1630       O  0.90619518  0.66592380  0.92480380    -0.77700
C1631       C  0.50275676  0.73544634  0.98595942     0.84500
C1632       C  0.59793744  0.72480816  0.90218155     0.84800
O1633       O  0.56840951  0.70004484  0.92003499    -0.80100
O1634       O  0.83054891  0.58984871  0.76808509    -0.77600
C1635       C  0.94577155  0.65556492  0.82245935     0.83400
O1636       O  0.98642579  0.71261698  0.74680812    -0.78700
O1637       O  0.51284343  0.59343774  0.78249425    -0.80200
O1638       O  0.88413510  0.99392977  0.74336238    -0.80000
O1639       O  0.81992539  0.54161373  0.73477678    -0.78600
Zn1640     Zn  0.89788063  0.62930781  0.76913346     1.55700
O1641       O  0.91005404  0.50750060  0.78606861    -0.80000
Cd1642     Cd  0.88568878  0.55265590  0.73260091     1.59700
Cd1643     Cd  0.98336282  0.65026696  0.73694099     1.59600
O1644       O  0.90623252  0.57236183  0.69361411    -0.80000
O1645       O  0.92939083  0.60141652  0.75639165    -1.90500
Cd1646     Cd  0.94752925  0.57984870  0.78804421     1.59900
O1647       O  0.97058506  0.64000021  0.69536195    -0.80000
O1648       O  0.95401191  0.62249248  0.82128605    -0.78600
C1649       C  0.94903765  0.71329488  0.74624905     0.83900
C1650       C  0.80502533  0.56035221  0.75077409     0.83600
O1651       O  0.92331171  0.66171665  0.80410733    -0.77600
C1652       C  0.89279608  0.98090502  0.76553448     0.84400
O1653       O  0.91144911  0.67691287  0.74323725    -0.77700
C1654       C  0.93831279  0.60744572  0.68213329     0.84500
C1655       C  0.54417178  0.61786463  0.76590195     0.84800
O1656       O  0.53943459  0.64266552  0.74806272    -0.80100
loop_ 
_geom_bond_atom_site_label_1 
_geom_bond_atom_site_label_2 
_geom_bond_distance 
_geom_bond_site_symmetry_2 
_ccdc_geom_bond_type 
O1           Zn7   1.987       .  S
O1          C431   1.274   1_545  A
C2           O18   1.270       .  A
C2           O15   1.285       .  A
C2          C853   1.480       .  S
O3           C16   1.279       .  A
O3         Cd838   2.120   1_455  S
O4           C22   1.270       .  A
O4          Cd13   2.042       .  S
O5           C19   1.274       .  A
O5           Cd9   2.036       .  S
O6           C17   1.269       .  A
O6         Cd423   2.070       .  S
Zn7          O18   2.005       .  S
Zn7         O848   1.930       .  S
Zn7          O12   1.856       .  S
O8           C19   1.291       .  A
O8          Cd13   2.127       .  S
Cd9          O11   2.053       .  S
Cd9         O420   2.070   1_545  S
Cd9          O12   1.968       .  S
Cd10         O14   2.103       .  S
Cd10         O23   2.115       .  S
Cd10        O831   2.120       .  S
Cd10         O12   1.998       .  S
O11          C21   1.276       .  A
O12         Cd13   1.958       .  S
Cd13         O15   2.133       .  S
O14          C21   1.280       .  A
C16          O20   1.263       .  A
C16          C86   1.454       .  S
C17         O415   1.274       .  A
C17         C131   1.454       .  S
C19          C91   1.470       .  S
O20        Zn835   1.930   1_455  S
C21         C412   1.472       .  S
C22          O23   1.285       .  A
C22         C134   1.470       .  S
O24         Zn30   1.986       .  S
O24          C40   1.273       .  A
C25          O41   1.270       .  A
C25          O38   1.285       .  A
C25         C830   1.480   1_455  S
O26          C39   1.279       .  A
O26        Cd861   2.121       .  S
O27          C45   1.270       .  A
O27         Cd36   2.042       .  S
O28          C42   1.274       .  A
O28         Cd32   2.035       .  S
O29          C40   1.269       .  A
O29         Cd32   2.070       .  S
Zn30         O41   2.004       .  S
Zn30        O871   1.930   1_455  S
Zn30         O35   1.856       .  S
O31          C42   1.291       .  A
O31         Cd36   2.127       .  S
Cd32         O34   2.052       .  S
Cd32         O35   1.968       .  S
Cd33         O37   2.103       .  S
Cd33         O46   2.115       .  S
Cd33        O854   2.121   1_455  S
Cd33         O35   1.998       .  S
O34          C44   1.276       .  A
O35         Cd36   1.958       .  S
Cd36         O38   2.133       .  S
O37          C44   1.280       .  A
C39          O43   1.263       .  A
C39         C109   1.454       .  S
C40          C62   1.453       .  S
C42         C114   1.470       .  S
O43        Zn858   1.930       .  S
C44         C182   1.472       .  S
C45          O46   1.285       .  A
C45          C65   1.470       .  S
O47         Zn53   1.986   1_655  S
O47         C891   1.273       .  A
C48          O64   1.270       .  A
C48          O61   1.285       .  A
C48         C485   1.479       .  S
O49          C62   1.279       .  A
O49        Cd470   2.120   1_545  S
O50          C68   1.270       .  A
O50         Cd59   2.042       .  S
O51          C65   1.274       .  A
O51         Cd55   2.036       .  S
O52          C63   1.269       .  A
O52        Cd883   2.071       .  S
Zn53         O64   2.003       .  S
Zn53        O480   1.930       .  S
Zn53         O58   1.856       .  S
O54          C65   1.291       .  A
O54         Cd59   2.126       .  S
Cd55         O57   2.053       .  S
Cd55        O880   2.071   1_455  S
Cd55         O58   1.968       .  S
Cd56         O60   2.102       .  S
Cd56         O69   2.114       .  S
Cd56        O463   2.120       .  S
Cd56         O58   1.998       .  S
O57          C67   1.276       .  A
O58         Cd59   1.958       .  S
Cd59         O61   2.132       .  S
O60          C67   1.280       .  A
C62          O66   1.263       .  A
C63         O875   1.273       .  A
C63         C108   1.454       .  S
O66        Zn467   1.930   1_545  S
C67         C274   1.472       .  S
C68          O69   1.285       .  A
C68         C111   1.470       .  S
O70         Zn76   1.987       .  S
O70          C86   1.273       .  A
C71          O87   1.270       .  A
C71          O84   1.285       .  A
C71         C462   1.479   1_545  S
O72          C85   1.279       .  A
O72        Cd493   2.120       .  S
O73          C91   1.270       .  A
O73         Cd82   2.042       .  S
O74          C88   1.274       .  A
O74         Cd78   2.036       .  S
O75          C86   1.269       .  A
O75         Cd78   2.071       .  S
Zn76         O87   2.004       .  S
Zn76        O503   1.930   1_545  S
Zn76         O81   1.856       .  S
O77          C88   1.291       .  A
O77         Cd82   2.126       .  S
Cd78         O80   2.053       .  S
Cd78         O81   1.968       .  S
Cd79         O83   2.102       .  S
Cd79         O92   2.114       .  S
Cd79        O486   2.120   1_545  S
Cd79         O81   1.998       .  S
O80          C90   1.276       .  A
O81         Cd82   1.958       .  S
Cd82         O84   2.132       .  S
O83          C90   1.280       .  A
C85          O89   1.263       .  A
C85         C132   1.454       .  S
C88         C137   1.470       .  S
O89        Zn490   1.930       .  S
C90         C343   1.472       .  S
C91          O92   1.285       .  A
O93        Zn513   1.987   1_545  S
O93         C109   1.274       .  A
C94         O110   1.270       .  A
C94         O107   1.285       .  A
C94         C117   1.480       .  S
O95         C108   1.279       .  A
O95        Cd102   2.120       .  S
O96         C114   1.270       .  A
O96        Cd105   2.042       .  S
O97         C111   1.274       .  A
O97        Cd101   2.036       .  S
O98         C109   1.269       .  A
O98        Cd515   2.070   1_545  S
Zn99        O110   2.005       .  S
Zn99        O112   1.931       .  S
Zn99        O507   1.987       .  S
Zn99        O104   1.856       .  S
O100        C111   1.291       .  A
O100       Cd105   2.126       .  S
Cd101       O103   2.053       .  S
Cd101       O512   2.070       .  S
Cd101       O104   1.968       .  S
Cd102       O106   2.102       .  S
Cd102       O115   2.115       .  S
Cd102       O104   1.998       .  S
O103        C113   1.276       .  A
O104       Cd105   1.958       .  S
Cd105       O107   2.132       .  S
O106        C113   1.280       .  A
C108        O112   1.263       .  A
C113        C205   1.472       .  S
C114        O115   1.285       .  A
O116       Zn122   1.986       .  S
O116        C960   1.273       .  A
C117        O133   1.270       .  A
C117        O130   1.285       .  A
O118        C131   1.279       .  A
O118       Cd125   2.120       .  S
O119        C137   1.270       .  A
O119       Cd128   2.042       .  S
O120        C134   1.274       .  A
O120       Cd124   2.035       .  S
O121        C132   1.269       .  A
O121       Cd952   2.070   1_455  S
Zn122       O133   2.003       .  S
Zn122       O135   1.930       .  S
Zn122       O127   1.856       .  S
O123        C134   1.291       .  A
O123       Cd128   2.127       .  S
Cd124       O126   2.052       .  S
Cd124       O949   2.070       .  S
Cd124       O127   1.968       .  S
Cd125       O129   2.103       .  S
Cd125       O138   2.114       .  S
Cd125       O127   1.998       .  S
O126        C136   1.276       .  A
O127       Cd128   1.958       .  S
Cd128       O130   2.133       .  S
O129        C136   1.280       .  A
C131        O135   1.263       .  A
C132        O944   1.273       .  A
C136        C297   1.472       .  S
C137        O138   1.285       .  A
O139       Zn145   1.987       .  S
O139        C155   1.273       .  A
C140        O156   1.270       .  A
C140        O981   1.285   1_455  A
C140        C163   1.479       .  S
O141        C154   1.279       .  A
O141       Cd148   2.120   1_455  S
O142        C160   1.270       .  A
O142       Cd151   2.042       .  S
O143        C157   1.274       .  A
O143       Cd975   2.035       .  S
O144        C155   1.269       .  A
O144       Cd147   2.071   1_455  S
Zn145       O156   2.003       .  S
Zn145       O158   1.930       .  S
Zn145       O150   1.856       .  S
O146        C157   1.291       .  A
O146       Cd151   2.127       .  S
Cd147       O971   2.035       .  S
Cd147       O977   2.053       .  S
Cd147       O150   1.968   1_655  S
Cd148       O980   2.102       .  S
Cd148       O989   2.114       .  S
Cd148       O150   1.998   1_655  S
O149        C159   1.276       .  A
O149       Cd975   2.053       .  S
O150       Cd979   1.958   1_455  S
Cd151       O153   2.133       .  S
Cd151       O978   1.958       .  S
O152        C159   1.280       .  A
O152       Cd976   2.102       .  S
O153        C968   1.285       .  A
C154        O158   1.263       .  A
C154        C224   1.453       .  S
C155        C246   1.454       .  S
C157        C229   1.470       .  S
C159       C1217   1.472   1_554  S
C160        O161   1.285       .  A
C160        C249   1.470       .  S
O161       Cd976   2.114       .  S
O162       Zn168   1.987       .  S
O162        C178   1.273       .  A
C163        O179   1.270       .  A
C163        O176   1.285       .  A
O164        C177   1.279       .  A
O164       Cd171   2.120       .  S
O165        C183   1.270       .  A
O165      Cd1002   2.042       .  S
O166        C180   1.274       .  A
O166       Cd170   2.036       .  S
O167        C178   1.269       .  A
O167       Cd170   2.071       .  S
Zn168       O179   2.004       .  S
Zn168       O181   1.930       .  S
Zn168       O173   1.856       .  S
O169        C180   1.291       .  A
O169       Cd174   2.127       .  S
Cd170       O172   2.053       .  S
Cd170       O173   1.968       .  S
Cd171       O175   2.102       .  S
Cd171      O1012   2.114   1_455  S
Cd171       O173   1.998       .  S
O172        C182   1.276       .  A
O173       Cd174   1.958       .  S
Cd174       O176   2.132       .  S
Cd174       O993   2.042   1_455  S
O175        C182   1.280       .  A
C177        O181   1.263       .  A
C177        C270   1.453       .  S
C178        C200   1.454       .  S
C180        C275   1.470       .  S
C183        O184   1.285       .  A
C183        C203   1.470       .  S
O184       Cd999   2.114       .  S
O185       Zn191   1.986       .  S
O185        C201   1.273       .  A
C186        O202   1.270       .  A
C186        O199   1.285       .  A
C186        C209   1.479       .  S
O187        C200   1.279       .  A
O187       Cd194   2.120       .  S
O188        C206   1.270       .  A
O188       Cd197   2.042       .  S
O189        C203   1.274       .  A
O189       Cd607   2.036   1_545  S
O190        C201   1.269       .  A
O190       Cd193   2.070       .  S
Zn191       O202   2.004       .  S
Zn191       O204   1.930       .  S
Zn191       O196   1.856       .  S
O192        C203   1.291       .  A
O192       Cd611   2.126   1_545  S
Cd193       O195   2.052       .  S
Cd193       O603   2.036       .  S
Cd193       O196   1.968       .  S
Cd194       O198   2.103       .  S
Cd194       O207   2.115       .  S
Cd194       O196   1.998       .  S
O195        C205   1.276       .  A
O196       Cd197   1.958       .  S
Cd197       O199   2.132       .  S
Cd197       O606   2.126       .  S
O198        C205   1.280       .  A
C200        O204   1.263       .  A
C201        C269   1.454       .  S
C206        O207   1.285       .  A
C206        C272   1.470       .  S
O208       Zn214   1.986       .  S
O208        C224   1.273       .  A
C209        O225   1.270       .  A
C209        O222   1.285       .  A
O210        C223   1.279       .  A
O210       Cd217   2.121       .  S
O211        C229   1.270       .  A
O211       Cd220   2.042       .  S
O212        C226   1.274       .  A
O212       Cd216   2.036       .  S
O213        C224   1.269       .  A
O213       Cd216   2.070       .  S
Zn214       O225   2.004       .  S
Zn214       O227   1.930       .  S
Zn214       O219   1.855       .  S
O215        C226   1.291       .  A
O215       Cd220   2.127       .  S
Cd216       O218   2.052       .  S
Cd216       O219   1.968       .  S
Cd217       O221   2.103       .  S
Cd217       O230   2.114       .  S
Cd217       O219   1.998       .  S
O218        C228   1.276       .  A
O219       Cd220   1.958       .  S
Cd220       O222   2.132       .  S
O221        C228   1.280       .  A
C223        O227   1.263       .  A
C223        C247   1.454       .  S
C226        C252   1.470       .  S
C228        C320   1.472   1_554  S
C229        O230   1.285       .  A
O231       Zn237   1.986       .  S
O231        C247   1.273       .  A
C232        O248   1.270       .  A
C232        O659   1.285       .  A
C232        C255   1.479       .  S
O233        C246   1.279       .  A
O233       Cd654   2.120       .  S
O234        C252   1.270       .  A
O234       Cd243   2.042       .  S
O235        C249   1.274       .  A
O235       Cd239   2.036       .  S
O236        C247   1.269       .  A
O236       Cd653   2.070       .  S
Zn237       O248   2.004       .  S
Zn237       O250   1.931       .  S
Zn237       O242   1.856       .  S
O238        C249   1.291       .  A
O238       Cd243   2.126       .  S
Cd239       O241   2.053       .  S
Cd239       O650   2.070   1_545  S
Cd239       O656   1.968       .  S
Cd240       O244   2.103       .  S
Cd240       O253   2.115       .  S
Cd240       O647   2.120   1_545  S
Cd240       O656   1.998       .  S
O241        C251   1.276       .  A
O242       Cd653   1.968       .  S
O242       Cd654   1.998       .  S
O242       Cd657   1.958       .  S
Cd243       O245   2.132       .  S
Cd243       O656   1.958       .  S
O244        C251   1.280       .  A
O245        C646   1.285   1_545  A
C246        O250   1.263       .  A
C251        C780   1.472   1_554  S
C252        O253   1.285       .  A
O254       Zn260   1.986       .  S
O254        C270   1.273       .  A
C255        O271   1.270       .  A
C255        O268   1.285       .  A
O256        C269   1.279       .  A
O256       Cd263   2.120       .  S
O257        C275   1.270       .  A
O257       Cd680   2.042   1_545  S
O258        C272   1.274       .  A
O258      Cd1090   2.035       .  S
O259        C270   1.269       .  A
O259       Cd262   2.070       .  S
Zn260       O271   2.004       .  S
Zn260       O273   1.930       .  S
Zn260       O265   1.856       .  S
O261       C1100   1.291   1_455  A
O261       Cd266   2.127       .  S
Cd262       O264   2.052       .  S
Cd262      O1086   2.035   1_455  S
Cd262       O265   1.968       .  S
Cd263       O267   2.103       .  S
Cd263       O690   2.114       .  S
Cd263       O265   1.998       .  S
O264        C274   1.276       .  A
O265       Cd266   1.958       .  S
Cd266       O268   2.132       .  S
Cd266       O671   2.042       .  S
O267        C274   1.280       .  A
C269        O273   1.263       .  A
C272       O1089   1.291       .  A
C275        O276   1.285       .  A
O276       Cd677   2.114   1_545  S
O277       Zn283   1.986       .  S
O277        C293   1.273       .  A
C278        O294   1.270       .  A
C278        O291   1.285       .  A
C278        C301   1.479       .  S
O279        C292   1.279       .  A
O279       Cd286   2.120       .  S
O280        C298   1.270       .  A
O280       Cd289   2.042       .  S
O281        C295   1.274       .  A
O281      Cd1113   2.036   1_455  S
O282        C293   1.269       .  A
O282       Cd285   2.071       .  S
Zn283       O294   2.003       .  S
Zn283       O296   1.930       .  S
Zn283       O288   1.856       .  S
O284        C295   1.291   1_655  A
O284      Cd1117   2.126       .  S
Cd285       O287   2.053       .  S
Cd285      O1109   2.036       .  S
Cd285       O288   1.968       .  S
Cd286       O290   2.102       .  S
Cd286       O299   2.114       .  S
Cd286       O288   1.998       .  S
O287        C297   1.276       .  A
O288       Cd289   1.958       .  S
Cd289       O291   2.132       .  S
Cd289      O1112   2.126       .  S
O290        C297   1.280       .  A
C292        O296   1.263       .  A
C292        C339   1.453       .  S
C293        C407   1.454       .  S
C295        C344   1.470       .  S
C298        O299   1.285       .  A
C298        C410   1.470       .  S
O300       Zn306   1.986       .  S
O300        C316   1.273       .  A
C301        O317   1.270       .  A
C301        O314   1.285       .  A
O302        C315   1.279       .  A
O302       Cd309   2.120       .  S
O303        C321   1.270       .  A
O303       Cd312   2.042       .  S
O304        C318   1.274       .  A
O304       Cd308   2.036       .  S
O305        C316   1.269       .  A
O305       Cd308   2.071       .  S
Zn306       O317   2.004       .  S
Zn306       O319   1.930       .  S
Zn306       O311   1.855       .  S
O307        C318   1.291       .  A
O307       Cd312   2.126       .  S
Cd308       O310   2.053       .  S
Cd308       O311   1.968       .  S
Cd309       O313   2.102       .  S
Cd309       O322   2.114       .  S
Cd309       O311   1.998       .  S
O310        C320   1.276       .  A
O311       Cd312   1.958       .  S
Cd312       O314   2.132       .  S
O313        C320   1.280       .  A
C315        O319   1.263       .  A
C315        C385   1.453       .  S
C316        C361   1.454       .  S
C318        C390   1.470       .  S
C321        O322   1.285       .  A
C321        C364   1.470       .  S
O323       Zn329   1.986       .  S
O323        C339   1.273       .  A
C324        O340   1.270       .  A
C324        O337   1.285       .  A
C324        C347   1.480       .  S
O325        C338   1.279       .  A
O325       Cd332   2.120       .  S
O326        C344   1.270       .  A
O326       Cd749   2.042       .  S
O327        C341   1.274       .  A
O327       Cd331   2.035       .  S
O328        C339   1.269       .  A
O328       Cd331   2.070       .  S
Zn329       O340   2.004       .  S
Zn329       O342   1.930       .  S
Zn329       O334   1.856       .  S
O330        C341   1.291       .  A
O330       Cd335   2.127       .  S
Cd331       O333   2.052       .  S
Cd331       O334   1.968       .  S
Cd332       O336   2.103       .  S
Cd332       O759   2.114   1_545  S
Cd332       O334   1.998       .  S
O333        C343   1.276       .  A
O334       Cd335   1.958       .  S
Cd335       O337   2.134       .  S
Cd335       O740   2.042   1_545  S
O336        C343   1.280       .  A
C338        O342   1.263       .  A
C338        C408   1.454       .  S
C341        C413   1.470       .  S
C344        O345   1.285       .  A
O345       Cd746   2.114       .  S
O346       Zn352   1.987       .  S
O346        C362   1.274       .  A
C347        O363   1.270       .  A
C347        O774   1.285       .  A
O348        C361   1.279       .  A
O348       Cd355   2.120       .  S
O349        C367   1.270       .  A
O349       Cd358   2.042       .  S
O350        C364   1.274       .  A
O350       Cd768   2.035       .  S
O351        C362   1.269       .  A
O351       Cd354   2.070       .  S
Zn352       O363   2.005       .  S
Zn352       O365   1.930       .  S
Zn352       O357   1.856       .  S
O353        C364   1.291       .  A
O353       Cd358   2.127       .  S
Cd354       O764   2.035   1_545  S
Cd354       O770   2.053       .  S
Cd354       O357   1.968       .  S
Cd355       O773   2.103       .  S
Cd355       O782   2.115   1_545  S
Cd355       O357   1.998       .  S
O356        C366   1.276       .  A
O356       Cd768   2.053       .  S
O357       Cd772   1.958   1_545  S
Cd358       O360   2.133       .  S
Cd358       O771   1.958       .  S
O359        C366   1.280       .  A
O359       Cd769   2.103       .  S
O360        C761   1.285       .  A
C361        O365   1.263       .  A
C362        C384   1.454       .  S
C366        C665   1.472   1_556  S
C367        O368   1.285       .  A
C367        C387   1.470       .  S
O368       Cd769   2.115       .  S
O369       Zn375   1.986       .  S
O369        C385   1.273       .  A
C370        O386   1.270       .  A
C370       O1211   1.285       .  A
C370        C393   1.479       .  S
O371        C384   1.279       .  A
O371       Cd378   2.120       .  S
O372        C390   1.270       .  A
O372       Cd381   2.042       .  S
O373        C387   1.274       .  A
O373      Cd1205   2.035       .  S
O374        C385   1.269       .  A
O374       Cd377   2.070       .  S
Zn375       O386   2.003       .  S
Zn375       O388   1.930       .  S
Zn375       O380   1.856       .  S
O376        C387   1.291       .  A
O376       Cd381   2.127       .  S
Cd377      O1201   2.035       .  S
Cd377      O1207   2.052       .  S
Cd377       O380   1.968       .  S
Cd378      O1210   2.103       .  S
Cd378      O1219   2.114       .  S
Cd378       O380   1.998       .  S
O379        C389   1.276       .  A
O379      Cd1205   2.052       .  S
O380      Cd1209   1.958       .  S
Cd381       O383   2.133       .  S
Cd381      O1208   1.958   1_455  S
O382        C389   1.280       .  A
O382      Cd1206   2.103       .  S
O383       C1198   1.285   1_455  A
C384        O388   1.263       .  A
C389        C987   1.472   1_456  S
C390        O391   1.285       .  A
O391      Cd1206   2.114       .  S
O392       Zn398   1.987       .  S
O392        C408   1.274       .  A
C393        O409   1.270       .  A
C393        O406   1.285       .  A
O394        C407   1.279       .  A
O394       Cd401   2.121       .  S
O395        C413   1.270       .  A
O395      Cd1232   2.042   1_455  S
O396        C410   1.274       .  A
O396       Cd814   2.036       .  S
O397        C408   1.269       .  A
O397       Cd400   2.070       .  S
Zn398       O409   2.005       .  S
Zn398       O411   1.931       .  S
Zn398       O403   1.856       .  S
O399        C824   1.291   1_545  A
O399       Cd404   2.126       .  S
Cd400       O402   2.053       .  S
Cd400       O810   2.036   1_545  S
Cd400       O403   1.968       .  S
Cd401       O405   2.103       .  S
Cd401      O1242   2.115       .  S
Cd401       O403   1.998       .  S
O402        C412   1.276       .  A
O403       Cd404   1.958       .  S
Cd404       O406   2.132       .  S
Cd404      O1223   2.042       .  S
O405        C412   1.280       .  A
C407        O411   1.263       .  A
C410        O813   1.291       .  A
C413        O414   1.285       .  A
O414      Cd1229   2.115   1_455  S
O415       Zn421   1.987       .  S
C416        O432   1.270       .  A
C416        O429   1.285       .  A
C416       C1267   1.480       .  S
O417        C430   1.279       .  A
O417      Cd1252   2.120   1_455  S
O418        C436   1.270       .  A
O418       Cd427   2.042       .  S
O419        C433   1.274       .  A
O419       Cd423   2.036       .  S
O420        C431   1.269       .  A
Zn421       O432   2.005       .  S
Zn421      O1262   1.930       .  S
Zn421       O426   1.856       .  S
O422        C433   1.291       .  A
O422       Cd427   2.127       .  S
Cd423       O425   2.053       .  S
Cd423       O426   1.968       .  S
Cd424      O1245   2.120       .  S
Cd424       O428   2.103       .  S
Cd424       O437   2.115       .  S
Cd424       O426   1.998       .  S
O425        C435   1.276       .  A
O426       Cd427   1.958       .  S
Cd427       O429   2.133       .  S
O428        C435   1.280       .  A
C430        O434   1.263       .  A
C430        C500   1.454       .  S
C431        C545   1.454       .  S
C433        C505   1.470       .  S
O434      Zn1249   1.930   1_455  S
C435        C826   1.472       .  S
C436        O437   1.285       .  A
C436        C548   1.470       .  S
O438       Zn444   1.986       .  S
O438        C454   1.273       .  A
C439        O455   1.270       .  A
C439        O452   1.285       .  A
C439       C1244   1.480   1_455  S
O440        C453   1.279       .  A
O440      Cd1275   2.121       .  S
O441        C459   1.270       .  A
O441       Cd450   2.042       .  S
O442        C456   1.274       .  A
O442       Cd446   2.035       .  S
O443        C454   1.269       .  A
O443       Cd446   2.070       .  S
Zn444       O455   2.004       .  S
Zn444      O1285   1.930   1_455  S
Zn444       O449   1.856       .  S
O445        C456   1.291       .  A
O445       Cd450   2.127       .  S
Cd446       O448   2.052       .  S
Cd446       O449   1.968       .  S
Cd447      O1268   2.121   1_455  S
Cd447       O451   2.103       .  S
Cd447       O460   2.115       .  S
Cd447       O449   1.998       .  S
O448        C458   1.276       .  A
O449       Cd450   1.958       .  S
Cd450       O452   2.133       .  S
O451        C458   1.280       .  A
C453        O457   1.263       .  A
C453        C523   1.454       .  S
C454        C476   1.453       .  S
C456        C528   1.470       .  S
O457      Zn1272   1.930       .  S
C458        C596   1.472       .  S
C459        O460   1.285       .  A
C459        C479   1.470       .  S
O461       Zn467   1.986   1_655  S
O461       C1305   1.273       .  A
C462        O478   1.270       .  A
C462        O475   1.285       .  A
O463        C476   1.279       .  A
O464        C482   1.270       .  A
O464       Cd473   2.042       .  S
O465        C479   1.274       .  A
O465       Cd469   2.036       .  S
O466        C477   1.269       .  A
O466      Cd1297   2.071       .  S
Zn467       O478   2.003       .  S
Zn467       O472   1.856       .  S
O468        C479   1.291       .  A
O468       Cd473   2.126       .  S
Cd469      O1294   2.071   1_455  S
Cd469       O471   2.053       .  S
Cd469       O472   1.968       .  S
Cd470       O474   2.102       .  S
Cd470       O483   2.114       .  S
Cd470       O472   1.998       .  S
O471        C481   1.276       .  A
O472       Cd473   1.958       .  S
Cd473       O475   2.132       .  S
O474        C481   1.280       .  A
C476        O480   1.263       .  A
C477       O1289   1.273       .  A
C477        C522   1.454       .  S
C481        C688   1.472       .  S
C482        O483   1.285       .  A
C482        C525   1.470       .  S
O484       Zn490   1.987       .  S
O484        C500   1.273       .  A
C485        O501   1.270       .  A
C485        O498   1.285       .  A
O486        C499   1.279       .  A
O487        C505   1.270       .  A
O487       Cd496   2.042       .  S
O488        C502   1.274       .  A
O488       Cd492   2.036       .  S
O489        C500   1.269       .  A
O489       Cd492   2.071       .  S
Zn490       O501   2.003       .  S
Zn490       O495   1.856       .  S
O491        C502   1.291       .  A
O491       Cd496   2.126       .  S
Cd492       O494   2.053       .  S
Cd492       O495   1.968       .  S
Cd493       O497   2.102       .  S
Cd493       O506   2.114       .  S
Cd493       O495   1.998       .  S
O494        C504   1.276       .  A
O495       Cd496   1.958       .  S
Cd496       O498   2.132       .  S
O497        C504   1.280       .  A
C499        O503   1.263       .  A
C499        C546   1.454       .  S
C502        C551   1.470       .  S
C504        C757   1.472       .  S
C505        O506   1.285       .  A
O507        C523   1.274       .  A
C508        O524   1.270       .  A
C508        O521   1.285       .  A
C508        C531   1.480       .  S
O509        C522   1.279       .  A
O509       Cd516   2.120       .  S
O510        C528   1.270       .  A
O510       Cd519   2.042       .  S
O511        C525   1.274       .  A
O511       Cd515   2.036       .  S
O512        C523   1.269       .  A
Zn513       O524   2.005       .  S
Zn513       O526   1.931       .  S
Zn513       O518   1.856       .  S
O514        C525   1.291       .  A
O514       Cd519   2.126       .  S
Cd515       O517   2.053       .  S
Cd515       O518   1.968       .  S
Cd516       O520   2.102       .  S
Cd516       O529   2.115       .  S
Cd516       O518   1.998       .  S
O517        C527   1.276       .  A
O518       Cd519   1.958       .  S
Cd519       O521   2.132       .  S
O520        C527   1.280       .  A
C522        O526   1.263       .  A
C527        C619   1.472       .  S
C528        O529   1.285       .  A
O530       Zn536   1.986       .  S
O530       C1374   1.273       .  A
C531        O547   1.270       .  A
C531        O544   1.285       .  A
O532        C545   1.279       .  A
O532       Cd539   2.120       .  S
O533        C551   1.270       .  A
O533       Cd542   2.042       .  S
O534        C548   1.274       .  A
O534       Cd538   2.035       .  S
O535        C546   1.269       .  A
O535      Cd1366   2.070   1_455  S
Zn536       O547   2.003       .  S
Zn536       O549   1.930       .  S
Zn536       O541   1.856       .  S
O537        C548   1.291       .  A
O537       Cd542   2.127       .  S
Cd538      O1363   2.070       .  S
Cd538       O540   2.052       .  S
Cd538       O541   1.968       .  S
Cd539       O543   2.103       .  S
Cd539       O552   2.114       .  S
Cd539       O541   1.998       .  S
O540        C550   1.276       .  A
O541       Cd542   1.958       .  S
Cd542       O544   2.133       .  S
O543        C550   1.280       .  A
C545        O549   1.263       .  A
C546       O1358   1.273       .  A
C550        C711   1.472       .  S
C551        O552   1.285       .  A
O553       Zn559   1.987       .  S
O553        C569   1.273       .  A
C554        O570   1.270       .  A
C554       O1395   1.285   1_455  A
C554        C577   1.479       .  S
O555        C568   1.279       .  A
O555       Cd562   2.120   1_455  S
O556        C574   1.270       .  A
O556       Cd565   2.042       .  S
O557        C571   1.274       .  A
O557      Cd1389   2.035       .  S
O558        C569   1.269       .  A
O558       Cd561   2.071   1_455  S
Zn559       O570   2.003       .  S
Zn559       O572   1.930       .  S
Zn559       O564   1.856       .  S
O560        C571   1.291       .  A
O560       Cd565   2.127       .  S
Cd561      O1385   2.035       .  S
Cd561      O1391   2.053       .  S
Cd561       O564   1.968   1_655  S
Cd562      O1394   2.102       .  S
Cd562      O1403   2.114       .  S
Cd562       O564   1.998   1_655  S
O563        C573   1.276       .  A
O563      Cd1389   2.053       .  S
O564      Cd1393   1.958   1_455  S
Cd565       O567   2.133       .  S
Cd565      O1392   1.958       .  S
O566        C573   1.280       .  A
O566      Cd1390   2.102       .  S
O567       C1382   1.285       .  A
C568        O572   1.263       .  A
C568        C638   1.453       .  S
C569        C660   1.454       .  S
C571        C643   1.470       .  S
C573       C1631   1.472   1_554  S
C574        O575   1.285       .  A
C574        C663   1.470       .  S
O575      Cd1390   2.114       .  S
O576       Zn582   1.987       .  S
O576        C592   1.273       .  A
C577        O593   1.270       .  A
C577        O590   1.285       .  A
O578        C591   1.279       .  A
O578       Cd585   2.120       .  S
O579        C597   1.270       .  A
O579      Cd1416   2.042       .  S
O580        C594   1.274       .  A
O580       Cd584   2.036       .  S
O581        C592   1.269       .  A
O581       Cd584   2.071       .  S
Zn582       O593   2.004       .  S
Zn582       O595   1.930       .  S
Zn582       O587   1.856       .  S
O583        C594   1.291       .  A
O583       Cd588   2.127       .  S
Cd584       O586   2.053       .  S
Cd584       O587   1.968       .  S
Cd585       O589   2.102       .  S
Cd585      O1426   2.114   1_455  S
Cd585       O587   1.998       .  S
O586        C596   1.276       .  A
O587       Cd588   1.958       .  S
Cd588      O1407   2.042   1_455  S
Cd588       O590   2.132       .  S
O589        C596   1.280       .  A
C591        O595   1.263       .  A
C591        C684   1.453       .  S
C592        C614   1.454       .  S
C594        C689   1.470       .  S
C597        O598   1.285       .  A
C597        C617   1.470       .  S
O598      Cd1413   2.114       .  S
O599       Zn605   1.986       .  S
O599        C615   1.273       .  A
C600        O616   1.270       .  A
C600        O613   1.285       .  A
C600        C623   1.479       .  S
O601        C614   1.279       .  A
O601       Cd608   2.120       .  S
O602        C620   1.270       .  A
O602       Cd611   2.042       .  S
O603        C617   1.274       .  A
O604        C615   1.269       .  A
O604       Cd607   2.070       .  S
Zn605       O616   2.004       .  S
Zn605       O618   1.930       .  S
Zn605       O610   1.856       .  S
O606        C617   1.291       .  A
Cd607       O609   2.052       .  S
Cd607       O610   1.968       .  S
Cd608       O612   2.103       .  S
Cd608       O621   2.115       .  S
Cd608       O610   1.998       .  S
O609        C619   1.276       .  A
O610       Cd611   1.958       .  S
Cd611       O613   2.132       .  S
O612        C619   1.280       .  A
C614        O618   1.263       .  A
C615        C683   1.454       .  S
C620        O621   1.285       .  A
C620        C686   1.470       .  S
O622       Zn628   1.986       .  S
O622        C638   1.273       .  A
C623        O639   1.270       .  A
C623        O636   1.285       .  A
O624        C637   1.279       .  A
O624       Cd631   2.121       .  S
O625        C643   1.270       .  A
O625       Cd634   2.042       .  S
O626        C640   1.274       .  A
O626       Cd630   2.036       .  S
O627        C638   1.269       .  A
O627       Cd630   2.070       .  S
Zn628       O639   2.004       .  S
Zn628       O641   1.930       .  S
Zn628       O633   1.855       .  S
O629        C640   1.291       .  A
O629       Cd634   2.127       .  S
Cd630       O632   2.052       .  S
Cd630       O633   1.968       .  S
Cd631       O635   2.103       .  S
Cd631       O644   2.114       .  S
Cd631       O633   1.998       .  S
O632        C642   1.276       .  A
O633       Cd634   1.958       .  S
Cd634       O636   2.132       .  S
O635        C642   1.280       .  A
C637        O641   1.263       .  A
C637        C661   1.454       .  S
C640        C666   1.470       .  S
C642        C734   1.472   1_554  S
C643        O644   1.285       .  A
O645       Zn651   1.986       .  S
O645        C661   1.273       .  A
C646        O662   1.270       .  A
C646        C669   1.479       .  S
O647        C660   1.279       .  A
O648        C666   1.270       .  A
O648       Cd657   2.042       .  S
O649        C663   1.274       .  A
O649       Cd653   2.036       .  S
O650        C661   1.269       .  A
Zn651       O662   2.004       .  S
Zn651       O664   1.931       .  S
Zn651       O656   1.856   1_565  S
O652        C663   1.291       .  A
O652       Cd657   2.126       .  S
Cd653       O655   2.053       .  S
Cd654       O658   2.103       .  S
Cd654       O667   2.115       .  S
O655        C665   1.276       .  A
Cd657       O659   2.132       .  S
O658        C665   1.280       .  A
C660        O664   1.263       .  A
C666        O667   1.285       .  A
O668       Zn674   1.986       .  S
O668        C684   1.273       .  A
C669        O685   1.270       .  A
C669        O682   1.285       .  A
O670        C683   1.279       .  A
O670       Cd677   2.120       .  S
O671        C689   1.270       .  A
O672        C686   1.274       .  A
O672      Cd1504   2.035       .  S
O673        C684   1.269       .  A
O673       Cd676   2.070       .  S
Zn674       O685   2.004       .  S
Zn674       O687   1.930       .  S
Zn674       O679   1.856       .  S
O675       C1514   1.291   1_455  A
O675       Cd680   2.127       .  S
Cd676      O1500   2.035   1_455  S
Cd676       O678   2.052       .  S
Cd676       O679   1.968       .  S
Cd677       O681   2.103       .  S
Cd677       O679   1.998       .  S
O678        C688   1.276       .  A
O679       Cd680   1.958       .  S
Cd680       O682   2.132       .  S
O681        C688   1.280       .  A
C683        O687   1.263       .  A
C686       O1503   1.291       .  A
C689        O690   1.285       .  A
O691       Zn697   1.986       .  S
O691        C707   1.273       .  A
C692        O708   1.270       .  A
C692        O705   1.285       .  A
C692        C715   1.479       .  S
O693        C706   1.279       .  A
O693       Cd700   2.120       .  S
O694        C712   1.270       .  A
O694       Cd703   2.042       .  S
O695        C709   1.274       .  A
O695      Cd1527   2.036   1_455  S
O696        C707   1.269       .  A
O696       Cd699   2.071       .  S
Zn697       O708   2.003       .  S
Zn697       O710   1.930       .  S
Zn697       O702   1.856       .  S
O698        C709   1.291   1_655  A
O698      Cd1531   2.126       .  S
Cd699      O1523   2.036       .  S
Cd699       O701   2.053       .  S
Cd699       O702   1.968       .  S
Cd700       O704   2.103       .  S
Cd700       O713   2.114       .  S
Cd700       O702   1.998       .  S
O701        C711   1.276       .  A
O702       Cd703   1.958       .  S
Cd703      O1526   2.126       .  S
Cd703       O705   2.132       .  S
O704        C711   1.280       .  A
C706        O710   1.263       .  A
C706        C753   1.453       .  S
C707        C821   1.454       .  S
C709        C758   1.470       .  S
C712        O713   1.285       .  A
C712        C824   1.470       .  S
O714       Zn720   1.986       .  S
O714        C730   1.273       .  A
C715        O731   1.270       .  A
C715        O728   1.285       .  A
O716        C729   1.279       .  A
O716       Cd723   2.120       .  S
O717        C735   1.270       .  A
O717       Cd726   2.042       .  S
O718        C732   1.274       .  A
O718       Cd722   2.036       .  S
O719        C730   1.269       .  A
O719       Cd722   2.071       .  S
Zn720       O731   2.004       .  S
Zn720       O733   1.930       .  S
Zn720       O725   1.855       .  S
O721        C732   1.291       .  A
O721       Cd726   2.126       .  S
Cd722       O724   2.053       .  S
Cd722       O725   1.968       .  S
Cd723       O727   2.102       .  S
Cd723       O736   2.114       .  S
Cd723       O725   1.998       .  S
O724        C734   1.276       .  A
O725       Cd726   1.958       .  S
Cd726       O728   2.132       .  S
O727        C734   1.280       .  A
C729        O733   1.263       .  A
C729        C799   1.453       .  S
C730        C775   1.454       .  S
C732        C804   1.470       .  S
C735        O736   1.285       .  A
C735        C778   1.470       .  S
O737       Zn743   1.986       .  S
O737        C753   1.273       .  A
C738        O754   1.270       .  A
C738        O751   1.285       .  A
C738        C761   1.480       .  S
O739        C752   1.279       .  A
O739       Cd746   2.120       .  S
O740        C758   1.270       .  A
O741        C755   1.274       .  A
O741       Cd745   2.035       .  S
O742        C753   1.269       .  A
O742       Cd745   2.070       .  S
Zn743       O754   2.004       .  S
Zn743       O756   1.930       .  S
Zn743       O748   1.856       .  S
O744        C755   1.291       .  A
O744       Cd749   2.127       .  S
Cd745       O747   2.052       .  S
Cd745       O748   1.968       .  S
Cd746       O750   2.103       .  S
Cd746       O748   1.998       .  S
O747        C757   1.276       .  A
O748       Cd749   1.958       .  S
Cd749       O751   2.134       .  S
O750        C757   1.280       .  A
C752        O756   1.263       .  A
C752        C822   1.454       .  S
C755        C827   1.470       .  S
C758        O759   1.285       .  A
O760       Zn766   1.987       .  S
O760        C776   1.274       .  A
C761        O777   1.270       .  A
O762        C775   1.279       .  A
O762       Cd769   2.120       .  S
O763        C781   1.270       .  A
O763       Cd772   2.042       .  S
O764        C778   1.274       .  A
O765        C776   1.269       .  A
O765       Cd768   2.070       .  S
Zn766       O777   2.005       .  S
Zn766       O779   1.930       .  S
Zn766       O771   1.856       .  S
O767        C778   1.291       .  A
O767       Cd772   2.127       .  S
Cd768       O771   1.968       .  S
Cd769       O771   1.998       .  S
O770        C780   1.276       .  A
Cd772       O774   2.133   1_565  S
O773        C780   1.280       .  A
C775        O779   1.263       .  A
C776        C798   1.454       .  S
C781        O782   1.285       .  A
C781        C801   1.470       .  S
O783       Zn789   1.986       .  S
O783        C799   1.273       .  A
C784        O800   1.270       .  A
C784       O1625   1.285       .  A
C784        C807   1.479       .  S
O785        C798   1.279       .  A
O785       Cd792   2.120       .  S
O786        C804   1.270       .  A
O786       Cd795   2.042       .  S
O787        C801   1.274       .  A
O787      Cd1619   2.035       .  S
O788        C799   1.269       .  A
O788       Cd791   2.070       .  S
Zn789       O800   2.003       .  S
Zn789       O802   1.930       .  S
Zn789       O794   1.856       .  S
O790        C801   1.291       .  A
O790       Cd795   2.127       .  S
Cd791      O1615   2.035       .  S
Cd791      O1621   2.052       .  S
Cd791       O794   1.968       .  S
Cd792      O1624   2.103       .  S
Cd792      O1633   2.114       .  S
Cd792       O794   1.998       .  S
O793        C803   1.276       .  A
O793      Cd1619   2.052       .  S
O794      Cd1623   1.958       .  S
Cd795       O797   2.133       .  S
Cd795      O1622   1.958   1_455  S
O796        C803   1.280       .  A
O796      Cd1620   2.103       .  S
O797       C1612   1.285   1_455  A
C798        O802   1.263       .  A
C803       C1401   1.472   1_456  S
C804        O805   1.285       .  A
O805      Cd1620   2.114       .  S
O806       Zn812   1.987       .  S
O806        C822   1.274       .  A
C807        O823   1.270       .  A
C807        O820   1.285       .  A
O808        C821   1.279       .  A
O808       Cd815   2.121       .  S
O809        C827   1.270       .  A
O809      Cd1646   2.042   1_455  S
O810        C824   1.274       .  A
O811        C822   1.269       .  A
O811       Cd814   2.070       .  S
Zn812       O823   2.005       .  S
Zn812       O825   1.931       .  S
Zn812       O817   1.856       .  S
O813       Cd818   2.126       .  S
Cd814       O816   2.053       .  S
Cd814       O817   1.968       .  S
Cd815       O819   2.103       .  S
Cd815      O1656   2.115       .  S
Cd815       O817   1.998       .  S
O816        C826   1.276       .  A
O817       Cd818   1.958       .  S
Cd818      O1637   2.042       .  S
Cd818       O820   2.132       .  S
O819        C826   1.280       .  A
C821        O825   1.263       .  A
C827        O828   1.285       .  A
O828      Cd1643   2.115   1_455  S
O829       Zn835   1.987       .  S
O829       C1259   1.274   1_545  A
C830        O846   1.270       .  A
C830        O843   1.285       .  A
O831        C844   1.279       .  A
O832        C850   1.270       .  A
O832       Cd841   2.042       .  S
O833        C847   1.274       .  A
O833       Cd837   2.036       .  S
O834        C845   1.269       .  A
O834      Cd1251   2.070       .  S
Zn835       O846   2.005       .  S
Zn835       O840   1.856       .  S
O836        C847   1.291       .  A
O836       Cd841   2.127       .  S
Cd837      O1248   2.070   1_545  S
Cd837       O839   2.053       .  S
Cd837       O840   1.968       .  S
Cd838       O842   2.103       .  S
Cd838       O851   2.115       .  S
Cd838       O840   1.998       .  S
O839        C849   1.276       .  A
O840       Cd841   1.958       .  S
Cd841       O843   2.133       .  S
O842        C849   1.280       .  A
C844        O848   1.263       .  A
C844        C914   1.454       .  S
C845       O1243   1.274       .  A
C845        C959   1.454       .  S
C847        C919   1.470       .  S
C849       C1240   1.472       .  S
C850        O851   1.285       .  A
C850        C962   1.470       .  S
O852       Zn858   1.986       .  S
O852        C868   1.273       .  A
C853        O869   1.270       .  A
C853        O866   1.285       .  A
O854        C867   1.279       .  A
O855        C873   1.270       .  A
O855       Cd864   2.042       .  S
O856        C870   1.274       .  A
O856       Cd860   2.035       .  S
O857        C868   1.269       .  A
O857       Cd860   2.070       .  S
Zn858       O869   2.004       .  S
Zn858       O863   1.856       .  S
O859        C870   1.291       .  A
O859       Cd864   2.127       .  S
Cd860       O862   2.052       .  S
Cd860       O863   1.968       .  S
Cd861       O865   2.103       .  S
Cd861       O874   2.115       .  S
Cd861       O863   1.998       .  S
O862        C872   1.276       .  A
O863       Cd864   1.958       .  S
Cd864       O866   2.133       .  S
O865        C872   1.280       .  A
C867        O871   1.263       .  A
C867        C937   1.454       .  S
C868        C890   1.453       .  S
C870        C942   1.470       .  S
C872       C1010   1.472       .  S
C873        O874   1.285       .  A
C873        C893   1.470       .  S
O875       Zn881   1.986       .  S
C876        O892   1.270       .  A
C876        O889   1.285       .  A
C876       C1313   1.479       .  S
O877        C890   1.279       .  A
O877      Cd1298   2.120   1_545  S
O878        C896   1.270       .  A
O878       Cd887   2.042       .  S
O879        C893   1.274       .  A
O879       Cd883   2.036       .  S
O880        C891   1.269       .  A
Zn881       O892   2.003       .  S
Zn881      O1308   1.930       .  S
Zn881       O886   1.856       .  S
O882        C893   1.291       .  A
O882       Cd887   2.126       .  S
Cd883       O885   2.053       .  S
Cd883       O886   1.968       .  S
Cd884      O1291   2.120       .  S
Cd884       O888   2.102       .  S
Cd884       O897   2.114       .  S
Cd884       O886   1.998       .  S
O885        C895   1.276       .  A
O886       Cd887   1.958       .  S
Cd887       O889   2.132       .  S
O888        C895   1.280       .  A
C890        O894   1.263       .  A
C891        C936   1.454       .  S
O894      Zn1295   1.930   1_545  S
C895       C1102   1.472       .  S
C896        O897   1.285       .  A
C896        C939   1.470       .  S
O898       Zn904   1.987       .  S
O898        C914   1.273       .  A
C899        O915   1.270       .  A
C899        O912   1.285       .  A
C899       C1290   1.479   1_545  S
O900        C913   1.279       .  A
O900      Cd1321   2.120       .  S
O901        C919   1.270       .  A
O901       Cd910   2.042       .  S
O902        C916   1.274       .  A
O902       Cd906   2.036       .  S
O903        C914   1.269       .  A
O903       Cd906   2.071       .  S
Zn904       O915   2.004       .  S
Zn904      O1331   1.930   1_545  S
Zn904       O909   1.856       .  S
O905        C916   1.291       .  A
O905       Cd910   2.126       .  S
Cd906       O908   2.053       .  S
Cd906       O909   1.968       .  S
Cd907      O1314   2.120   1_545  S
Cd907       O911   2.102       .  S
Cd907       O920   2.114       .  S
Cd907       O909   1.998       .  S
O908        C918   1.276       .  A
O909       Cd910   1.958       .  S
Cd910       O912   2.132       .  S
O911        C918   1.280       .  A
C913        O917   1.263       .  A
C913        C960   1.454       .  S
C916        C965   1.470       .  S
O917      Zn1318   1.930       .  S
C918       C1171   1.472       .  S
C919        O920   1.285       .  A
O921      Zn1341   1.987   1_545  S
O921        C937   1.274       .  A
C922        O938   1.270       .  A
C922        O935   1.285       .  A
C922        C945   1.480       .  S
O923        C936   1.279       .  A
O923       Cd930   2.120       .  S
O924        C942   1.270       .  A
O924       Cd933   2.042       .  S
O925        C939   1.274       .  A
O925       Cd929   2.036       .  S
O926        C937   1.269       .  A
O926      Cd1343   2.070   1_545  S
Zn927      O1335   1.987       .  S
Zn927       O938   2.005       .  S
Zn927       O940   1.931       .  S
Zn927       O932   1.856       .  S
O928        C939   1.291       .  A
O928       Cd933   2.126       .  S
Cd929      O1340   2.070       .  S
Cd929       O931   2.053       .  S
Cd929       O932   1.968       .  S
Cd930       O934   2.102       .  S
Cd930       O943   2.115       .  S
Cd930       O932   1.998       .  S
O931        C941   1.276       .  A
O932       Cd933   1.958       .  S
Cd933       O935   2.132       .  S
O934        C941   1.280       .  A
C936        O940   1.263       .  A
C941       C1033   1.472       .  S
C942        O943   1.285       .  A
O944       Zn950   1.986   1_455  S
C945        O961   1.270       .  A
C945        O958   1.285       .  A
O946        C959   1.279       .  A
O946       Cd953   2.120       .  S
O947        C965   1.270       .  A
O947       Cd956   2.042       .  S
O948        C962   1.274       .  A
O948       Cd952   2.035       .  S
O949        C960   1.269       .  A
Zn950       O961   2.003       .  S
Zn950       O963   1.930       .  S
Zn950       O955   1.856       .  S
O951        C962   1.291       .  A
O951       Cd956   2.127       .  S
Cd952       O954   2.052       .  S
Cd952       O955   1.968       .  S
Cd953       O957   2.103       .  S
Cd953       O966   2.114       .  S
Cd953       O955   1.998       .  S
O954        C964   1.276       .  A
O955       Cd956   1.958       .  S
Cd956       O958   2.133       .  S
O957        C964   1.280       .  A
C959        O963   1.263       .  A
C964       C1125   1.472       .  S
C965        O966   1.285       .  A
O967       Zn973   1.987       .  S
O967        C983   1.273       .  A
C968        O984   1.270       .  A
C968        C991   1.479       .  S
O969        C982   1.279       .  A
O969       Cd976   2.120       .  S
O970        C988   1.270       .  A
O970       Cd979   2.042       .  S
O971        C985   1.274       .  A
O972        C983   1.269       .  A
O972       Cd975   2.071       .  S
Zn973       O984   2.003       .  S
Zn973       O986   1.930       .  S
Zn973       O978   1.856       .  S
O974        C985   1.291       .  A
O974       Cd979   2.127       .  S
Cd975       O978   1.968       .  S
Cd976       O978   1.998       .  S
O977        C987   1.276       .  A
Cd979       O981   2.133       .  S
O980        C987   1.280       .  A
C982        O986   1.263       .  A
C982       C1052   1.453       .  S
C983       C1074   1.454       .  S
C985       C1057   1.470       .  S
C988        O989   1.285       .  A
C988       C1077   1.470       .  S
O990       Zn996   1.987       .  S
O990       C1006   1.273       .  A
C991       O1007   1.270       .  A
C991       O1004   1.285       .  A
O992       C1005   1.279       .  A
O992       Cd999   2.120       .  S
O993       C1011   1.270       .  A
O994       C1008   1.274       .  A
O994       Cd998   2.036       .  S
O995       C1006   1.269       .  A
O995       Cd998   2.071       .  S
Zn996      O1007   2.004       .  S
Zn996      O1009   1.930       .  S
Zn996      O1001   1.856       .  S
O997       C1008   1.291       .  A
O997      Cd1002   2.127       .  S
Cd998      O1000   2.053       .  S
Cd998      O1001   1.968       .  S
Cd999      O1003   2.102       .  S
Cd999      O1001   1.998       .  S
O1000      C1010   1.276       .  A
O1001     Cd1002   1.958       .  S
Cd1002     O1004   2.132       .  S
O1003      C1010   1.280       .  A
C1005      O1009   1.263       .  A
C1005      C1098   1.453       .  S
C1006      C1028   1.454       .  S
C1008      C1103   1.470       .  S
C1011      O1012   1.285       .  A
C1011      C1031   1.470       .  S
O1013     Zn1019   1.986       .  S
O1013      C1029   1.273       .  A
C1014      O1030   1.270       .  A
C1014      O1027   1.285       .  A
C1014      C1037   1.479       .  S
O1015      C1028   1.279       .  A
O1015     Cd1022   2.120       .  S
O1016      C1034   1.270       .  A
O1016     Cd1025   2.042       .  S
O1017      C1031   1.274       .  A
O1017     Cd1435   2.036   1_545  S
O1018      C1029   1.269       .  A
O1018     Cd1021   2.070       .  S
Zn1019     O1030   2.004       .  S
Zn1019     O1032   1.930       .  S
Zn1019     O1024   1.856       .  S
O1020      C1031   1.291       .  A
O1020     Cd1439   2.126   1_545  S
Cd1021     O1431   2.036       .  S
Cd1021     O1023   2.052       .  S
Cd1021     O1024   1.968       .  S
Cd1022     O1026   2.103       .  S
Cd1022     O1035   2.115       .  S
Cd1022     O1024   1.998       .  S
O1023      C1033   1.276       .  A
O1024     Cd1025   1.958       .  S
Cd1025     O1434   2.126       .  S
Cd1025     O1027   2.132       .  S
O1026      C1033   1.280       .  A
C1028      O1032   1.263       .  A
C1029      C1097   1.454       .  S
C1034      O1035   1.285       .  A
C1034      C1100   1.470       .  S
O1036     Zn1042   1.986       .  S
O1036      C1052   1.273       .  A
C1037      O1053   1.270       .  A
C1037      O1050   1.285       .  A
O1038      C1051   1.279       .  A
O1038     Cd1045   2.121       .  S
O1039      C1057   1.270       .  A
O1039     Cd1048   2.042       .  S
O1040      C1054   1.274       .  A
O1040     Cd1044   2.036       .  S
O1041      C1052   1.269       .  A
O1041     Cd1044   2.070       .  S
Zn1042     O1053   2.004       .  S
Zn1042     O1055   1.930       .  S
Zn1042     O1047   1.855       .  S
O1043      C1054   1.291       .  A
O1043     Cd1048   2.127       .  S
Cd1044     O1046   2.052       .  S
Cd1044     O1047   1.968       .  S
Cd1045     O1049   2.103       .  S
Cd1045     O1058   2.114       .  S
Cd1045     O1047   1.998       .  S
O1046      C1056   1.276       .  A
O1047     Cd1048   1.958       .  S
Cd1048     O1050   2.132       .  S
O1049      C1056   1.280       .  A
C1051      O1055   1.263       .  A
C1051      C1075   1.454       .  S
C1054      C1080   1.470       .  S
C1056      C1148   1.472   1_554  S
C1057      O1058   1.285       .  A
O1059     Zn1065   1.986       .  S
O1059      C1075   1.273       .  A
C1060      O1076   1.270       .  A
C1060      O1487   1.285       .  A
C1060      C1083   1.479       .  S
O1061      C1074   1.279       .  A
O1061     Cd1482   2.120       .  S
O1062      C1080   1.270       .  A
O1062     Cd1071   2.042       .  S
O1063      C1077   1.274       .  A
O1063     Cd1067   2.036       .  S
O1064      C1075   1.269       .  A
O1064     Cd1481   2.070       .  S
Zn1065     O1076   2.004       .  S
Zn1065     O1078   1.931       .  S
Zn1065     O1070   1.856       .  S
O1066      C1077   1.291       .  A
O1066     Cd1071   2.126       .  S
Cd1067     O1478   2.070   1_545  S
Cd1067     O1069   2.053       .  S
Cd1067     O1484   1.968       .  S
Cd1068     O1475   2.120   1_545  S
Cd1068     O1072   2.103       .  S
Cd1068     O1081   2.115       .  S
Cd1068     O1484   1.998       .  S
O1069      C1079   1.276       .  A
O1070     Cd1481   1.968       .  S
O1070     Cd1482   1.998       .  S
O1070     Cd1485   1.958       .  S
Cd1071     O1073   2.132       .  S
Cd1071     O1484   1.958       .  S
O1072      C1079   1.280       .  A
O1073      C1474   1.285   1_545  A
C1074      O1078   1.263       .  A
C1079      C1608   1.472   1_554  S
C1080      O1081   1.285       .  A
O1082     Zn1088   1.986       .  S
O1082      C1098   1.273       .  A
C1083      O1099   1.270       .  A
C1083      O1096   1.285       .  A
O1084      C1097   1.279       .  A
O1084     Cd1091   2.120       .  S
O1085      C1103   1.270       .  A
O1085     Cd1508   2.042   1_545  S
O1086      C1100   1.274       .  A
O1087      C1098   1.269       .  A
O1087     Cd1090   2.070       .  S
Zn1088     O1099   2.004       .  S
Zn1088     O1101   1.930       .  S
Zn1088     O1093   1.856       .  S
O1089     Cd1094   2.127       .  S
Cd1090     O1092   2.052       .  S
Cd1090     O1093   1.968       .  S
Cd1091     O1095   2.103       .  S
Cd1091     O1518   2.114       .  S
Cd1091     O1093   1.998       .  S
O1092      C1102   1.276       .  A
O1093     Cd1094   1.958       .  S
Cd1094     O1499   2.042       .  S
Cd1094     O1096   2.132       .  S
O1095      C1102   1.280       .  A
C1097      O1101   1.263       .  A
C1103      O1104   1.285       .  A
O1104     Cd1505   2.114   1_545  S
O1105     Zn1111   1.986       .  S
O1105      C1121   1.273       .  A
C1106      O1122   1.270       .  A
C1106      O1119   1.285       .  A
C1106      C1129   1.479       .  S
O1107      C1120   1.279       .  A
O1107     Cd1114   2.120       .  S
O1108      C1126   1.270       .  A
O1108     Cd1117   2.042       .  S
O1109      C1123   1.274       .  A
O1110      C1121   1.269       .  A
O1110     Cd1113   2.071       .  S
Zn1111     O1122   2.003       .  S
Zn1111     O1124   1.930       .  S
Zn1111     O1116   1.856       .  S
O1112      C1123   1.291       .  A
Cd1113     O1115   2.053       .  S
Cd1113     O1116   1.968       .  S
Cd1114     O1118   2.102       .  S
Cd1114     O1127   2.114       .  S
Cd1114     O1116   1.998       .  S
O1115      C1125   1.276       .  A
O1116     Cd1117   1.958       .  S
Cd1117     O1119   2.132       .  S
O1118      C1125   1.280       .  A
C1120      O1124   1.263       .  A
C1120      C1167   1.453       .  S
C1121      C1235   1.454       .  S
C1123      C1172   1.470       .  S
C1126      O1127   1.285       .  A
C1126      C1238   1.470       .  S
O1128     Zn1134   1.986       .  S
O1128      C1144   1.273       .  A
C1129      O1145   1.270       .  A
C1129      O1142   1.285       .  A
O1130      C1143   1.279       .  A
O1130     Cd1137   2.120       .  S
O1131      C1149   1.270       .  A
O1131     Cd1140   2.042       .  S
O1132      C1146   1.274       .  A
O1132     Cd1136   2.036       .  S
O1133      C1144   1.269       .  A
O1133     Cd1136   2.071       .  S
Zn1134     O1145   2.004       .  S
Zn1134     O1147   1.930       .  S
Zn1134     O1139   1.855       .  S
O1135      C1146   1.291       .  A
O1135     Cd1140   2.126       .  S
Cd1136     O1138   2.053       .  S
Cd1136     O1139   1.968       .  S
Cd1137     O1141   2.102       .  S
Cd1137     O1150   2.114       .  S
Cd1137     O1139   1.998       .  S
O1138      C1148   1.276       .  A
O1139     Cd1140   1.958       .  S
Cd1140     O1142   2.132       .  S
O1141      C1148   1.280       .  A
C1143      O1147   1.263       .  A
C1143      C1213   1.453       .  S
C1144      C1189   1.454       .  S
C1146      C1218   1.470       .  S
C1149      O1150   1.285       .  A
C1149      C1192   1.470       .  S
O1151     Zn1157   1.986       .  S
O1151      C1167   1.273       .  A
C1152      O1168   1.270       .  A
C1152      O1165   1.285       .  A
C1152      C1175   1.480       .  S
O1153      C1166   1.279       .  A
O1153     Cd1160   2.120       .  S
O1154      C1172   1.270       .  A
O1154     Cd1577   2.042       .  S
O1155      C1169   1.274       .  A
O1155     Cd1159   2.035       .  S
O1156      C1167   1.269       .  A
O1156     Cd1159   2.070       .  S
Zn1157     O1168   2.004       .  S
Zn1157     O1170   1.930       .  S
Zn1157     O1162   1.856       .  S
O1158      C1169   1.291       .  A
O1158     Cd1163   2.127       .  S
Cd1159     O1161   2.052       .  S
Cd1159     O1162   1.968       .  S
Cd1160     O1164   2.103       .  S
Cd1160     O1587   2.114   1_545  S
Cd1160     O1162   1.998       .  S
O1161      C1171   1.276       .  A
O1162     Cd1163   1.958       .  S
Cd1163     O1568   2.042   1_545  S
Cd1163     O1165   2.134       .  S
O1164      C1171   1.280       .  A
C1166      O1170   1.263       .  A
C1166      C1236   1.454       .  S
C1169      C1241   1.470       .  S
C1172      O1173   1.285       .  A
O1173     Cd1574   2.114       .  S
O1174     Zn1180   1.987       .  S
O1174      C1190   1.274       .  A
C1175      O1191   1.270       .  A
C1175      O1602   1.285       .  A
O1176      C1189   1.279       .  A
O1176     Cd1183   2.120       .  S
O1177      C1195   1.270       .  A
O1177     Cd1186   2.042       .  S
O1178      C1192   1.274       .  A
O1178     Cd1596   2.035       .  S
O1179      C1190   1.269       .  A
O1179     Cd1182   2.070       .  S
Zn1180     O1191   2.005       .  S
Zn1180     O1193   1.930       .  S
Zn1180     O1185   1.856       .  S
O1181      C1192   1.291       .  A
O1181     Cd1186   2.127       .  S
Cd1182     O1592   2.035   1_545  S
Cd1182     O1598   2.053       .  S
Cd1182     O1185   1.968       .  S
Cd1183     O1601   2.103       .  S
Cd1183     O1610   2.115   1_545  S
Cd1183     O1185   1.998       .  S
O1184      C1194   1.276       .  A
O1184     Cd1596   2.053       .  S
O1185     Cd1600   1.958   1_545  S
Cd1186     O1188   2.133       .  S
Cd1186     O1599   1.958       .  S
O1187      C1194   1.280       .  A
O1187     Cd1597   2.103       .  S
O1188      C1589   1.285       .  A
C1189      O1193   1.263       .  A
C1190      C1212   1.454       .  S
C1194      C1493   1.472   1_556  S
C1195      O1196   1.285       .  A
C1195      C1215   1.470       .  S
O1196     Cd1597   2.115       .  S
O1197     Zn1203   1.986       .  S
O1197      C1213   1.273       .  A
C1198      O1214   1.270       .  A
C1198      C1221   1.479       .  S
O1199      C1212   1.279       .  A
O1199     Cd1206   2.120   1_655  S
O1200      C1218   1.270       .  A
O1200     Cd1209   2.042       .  S
O1201      C1215   1.274       .  A
O1202      C1213   1.269       .  A
O1202     Cd1205   2.070   1_655  S
Zn1203     O1214   2.003       .  S
Zn1203     O1216   1.930       .  S
Zn1203     O1208   1.856       .  S
O1204      C1215   1.291       .  A
O1204     Cd1209   2.127       .  S
Cd1205     O1208   1.968   1_455  S
Cd1206     O1208   1.998   1_455  S
O1207      C1217   1.276       .  A
Cd1209     O1211   2.133       .  S
O1210      C1217   1.280       .  A
C1212      O1216   1.263       .  A
C1218      O1219   1.285       .  A
O1220     Zn1226   1.987       .  S
O1220      C1236   1.274       .  A
C1221      O1237   1.270       .  A
C1221      O1234   1.285       .  A
O1222      C1235   1.279       .  A
O1222     Cd1229   2.121       .  S
O1223      C1241   1.270       .  A
O1224      C1238   1.274       .  A
O1224     Cd1642   2.036       .  S
O1225      C1236   1.269       .  A
O1225     Cd1228   2.070       .  S
Zn1226     O1237   2.005       .  S
Zn1226     O1239   1.931       .  S
Zn1226     O1231   1.856       .  S
O1227      C1652   1.291   1_545  A
O1227     Cd1232   2.126       .  S
Cd1228     O1638   2.036   1_545  S
Cd1228     O1230   2.053       .  S
Cd1228     O1231   1.968       .  S
Cd1229     O1233   2.103       .  S
Cd1229     O1231   1.998       .  S
O1230      C1240   1.276       .  A
O1231     Cd1232   1.958       .  S
Cd1232     O1234   2.132       .  S
O1233      C1240   1.280       .  A
C1235      O1239   1.263       .  A
C1238      O1641   1.291       .  A
C1241      O1242   1.285       .  A
O1243     Zn1249   1.987       .  S
C1244      O1260   1.270       .  A
C1244      O1257   1.285       .  A
O1245      C1258   1.279       .  A
O1246      C1264   1.270       .  A
O1246     Cd1255   2.042       .  S
O1247      C1261   1.274       .  A
O1247     Cd1251   2.036       .  S
O1248      C1259   1.269       .  A
Zn1249     O1260   2.005       .  S
Zn1249     O1254   1.856       .  S
O1250      C1261   1.291       .  A
O1250     Cd1255   2.127       .  S
Cd1251     O1253   2.053       .  S
Cd1251     O1254   1.968       .  S
Cd1252     O1256   2.103       .  S
Cd1252     O1265   2.115       .  S
Cd1252     O1254   1.998       .  S
O1253      C1263   1.276       .  A
O1254     Cd1255   1.958       .  S
Cd1255     O1257   2.133       .  S
O1256      C1263   1.280       .  A
C1258      O1262   1.263       .  A
C1258      C1328   1.454       .  S
C1259      C1373   1.454       .  S
C1261      C1333   1.470       .  S
C1263      C1654   1.472       .  S
C1264      O1265   1.285       .  A
C1264      C1376   1.470       .  S
O1266     Zn1272   1.986       .  S
O1266      C1282   1.273       .  A
C1267      O1283   1.270       .  A
C1267      O1280   1.285       .  A
O1268      C1281   1.279       .  A
O1269      C1287   1.270       .  A
O1269     Cd1278   2.042       .  S
O1270      C1284   1.274       .  A
O1270     Cd1274   2.035       .  S
O1271      C1282   1.269       .  A
O1271     Cd1274   2.070       .  S
Zn1272     O1283   2.004       .  S
Zn1272     O1277   1.856       .  S
O1273      C1284   1.291       .  A
O1273     Cd1278   2.127       .  S
Cd1274     O1276   2.052       .  S
Cd1274     O1277   1.968       .  S
Cd1275     O1279   2.103       .  S
Cd1275     O1288   2.115       .  S
Cd1275     O1277   1.998       .  S
O1276      C1286   1.276       .  A
O1277     Cd1278   1.958       .  S
Cd1278     O1280   2.133       .  S
O1279      C1286   1.280       .  A
C1281      O1285   1.263       .  A
C1281      C1351   1.454       .  S
C1282      C1304   1.453       .  S
C1284      C1356   1.470       .  S
C1286      C1424   1.472       .  S
C1287      O1288   1.285       .  A
C1287      C1307   1.470       .  S
O1289     Zn1295   1.986       .  S
C1290      O1306   1.270       .  A
C1290      O1303   1.285       .  A
O1291      C1304   1.279       .  A
O1292      C1310   1.270       .  A
O1292     Cd1301   2.042       .  S
O1293      C1307   1.274       .  A
O1293     Cd1297   2.036       .  S
O1294      C1305   1.269       .  A
Zn1295     O1306   2.003       .  S
Zn1295     O1300   1.856       .  S
O1296      C1307   1.291       .  A
O1296     Cd1301   2.126       .  S
Cd1297     O1299   2.053       .  S
Cd1297     O1300   1.968       .  S
Cd1298     O1302   2.102       .  S
Cd1298     O1311   2.114       .  S
Cd1298     O1300   1.998       .  S
O1299      C1309   1.276       .  A
O1300     Cd1301   1.958       .  S
Cd1301     O1303   2.132       .  S
O1302      C1309   1.280       .  A
C1304      O1308   1.263       .  A
C1305      C1350   1.454       .  S
C1309      C1516   1.472       .  S
C1310      O1311   1.285       .  A
C1310      C1353   1.470       .  S
O1312     Zn1318   1.987       .  S
O1312      C1328   1.273       .  A
C1313      O1329   1.270       .  A
C1313      O1326   1.285       .  A
O1314      C1327   1.279       .  A
O1315      C1333   1.270       .  A
O1315     Cd1324   2.042       .  S
O1316      C1330   1.274       .  A
O1316     Cd1320   2.036       .  S
O1317      C1328   1.269       .  A
O1317     Cd1320   2.071       .  S
Zn1318     O1329   2.003       .  S
Zn1318     O1323   1.856       .  S
O1319      C1330   1.291       .  A
O1319     Cd1324   2.126       .  S
Cd1320     O1322   2.053       .  S
Cd1320     O1323   1.968       .  S
Cd1321     O1325   2.102       .  S
Cd1321     O1334   2.114       .  S
Cd1321     O1323   1.998       .  S
O1322      C1332   1.276       .  A
O1323     Cd1324   1.958       .  S
Cd1324     O1326   2.132       .  S
O1325      C1332   1.280       .  A
C1327      O1331   1.263       .  A
C1327      C1374   1.454       .  S
C1330      C1379   1.470       .  S
C1332      C1585   1.472       .  S
C1333      O1334   1.285       .  A
O1335      C1351   1.274       .  A
C1336      O1352   1.270       .  A
C1336      O1349   1.285       .  A
C1336      C1359   1.480       .  S
O1337      C1350   1.279       .  A
O1337     Cd1344   2.120       .  S
O1338      C1356   1.270       .  A
O1338     Cd1347   2.042       .  S
O1339      C1353   1.274       .  A
O1339     Cd1343   2.036       .  S
O1340      C1351   1.269       .  A
Zn1341     O1352   2.005       .  S
Zn1341     O1354   1.931       .  S
Zn1341     O1346   1.856       .  S
O1342      C1353   1.291       .  A
O1342     Cd1347   2.126       .  S
Cd1343     O1345   2.053       .  S
Cd1343     O1346   1.968       .  S
Cd1344     O1348   2.102       .  S
Cd1344     O1357   2.115       .  S
Cd1344     O1346   1.998       .  S
O1345      C1355   1.276       .  A
O1346     Cd1347   1.958       .  S
Cd1347     O1349   2.132       .  S
O1348      C1355   1.280       .  A
C1350      O1354   1.263       .  A
C1355      C1447   1.472       .  S
C1356      O1357   1.285       .  A
O1358     Zn1364   1.986   1_455  S
C1359      O1375   1.270       .  A
C1359      O1372   1.285       .  A
O1360      C1373   1.279       .  A
O1360     Cd1367   2.120       .  S
O1361      C1379   1.270       .  A
O1361     Cd1370   2.042       .  S
O1362      C1376   1.274       .  A
O1362     Cd1366   2.035       .  S
O1363      C1374   1.269       .  A
Zn1364     O1375   2.003       .  S
Zn1364     O1377   1.930       .  S
Zn1364     O1369   1.856       .  S
O1365      C1376   1.291       .  A
O1365     Cd1370   2.127       .  S
Cd1366     O1368   2.052       .  S
Cd1366     O1369   1.968       .  S
Cd1367     O1371   2.103       .  S
Cd1367     O1380   2.114       .  S
Cd1367     O1369   1.998       .  S
O1368      C1378   1.276       .  A
O1369     Cd1370   1.958       .  S
Cd1370     O1372   2.133       .  S
O1371      C1378   1.280       .  A
C1373      O1377   1.263       .  A
C1378      C1539   1.472       .  S
C1379      O1380   1.285       .  A
O1381     Zn1387   1.987       .  S
O1381      C1397   1.273       .  A
C1382      O1398   1.270       .  A
C1382      C1405   1.479       .  S
O1383      C1396   1.279       .  A
O1383     Cd1390   2.120       .  S
O1384      C1402   1.270       .  A
O1384     Cd1393   2.042       .  S
O1385      C1399   1.274       .  A
O1386      C1397   1.269       .  A
O1386     Cd1389   2.071       .  S
Zn1387     O1398   2.003       .  S
Zn1387     O1400   1.930       .  S
Zn1387     O1392   1.856       .  S
O1388      C1399   1.291       .  A
O1388     Cd1393   2.127       .  S
Cd1389     O1392   1.968       .  S
Cd1390     O1392   1.998       .  S
O1391      C1401   1.276       .  A
Cd1393     O1395   2.133       .  S
O1394      C1401   1.280       .  A
C1396      O1400   1.263       .  A
C1396      C1466   1.453       .  S
C1397      C1488   1.454       .  S
C1399      C1471   1.470       .  S
C1402      O1403   1.285       .  A
C1402      C1491   1.470       .  S
O1404     Zn1410   1.987       .  S
O1404      C1420   1.273       .  A
C1405      O1421   1.270       .  A
C1405      O1418   1.285       .  A
O1406      C1419   1.279       .  A
O1406     Cd1413   2.120       .  S
O1407      C1425   1.270       .  A
O1408      C1422   1.274       .  A
O1408     Cd1412   2.036       .  S
O1409      C1420   1.269       .  A
O1409     Cd1412   2.071       .  S
Zn1410     O1421   2.004       .  S
Zn1410     O1423   1.930       .  S
Zn1410     O1415   1.856       .  S
O1411      C1422   1.291       .  A
O1411     Cd1416   2.127       .  S
Cd1412     O1414   2.053       .  S
Cd1412     O1415   1.968       .  S
Cd1413     O1417   2.102       .  S
Cd1413     O1415   1.998       .  S
O1414      C1424   1.276       .  A
O1415     Cd1416   1.958       .  S
Cd1416     O1418   2.132       .  S
O1417      C1424   1.280       .  A
C1419      O1423   1.263       .  A
C1419      C1512   1.453       .  S
C1420      C1442   1.454       .  S
C1422      C1517   1.470       .  S
C1425      O1426   1.285       .  A
C1425      C1445   1.470       .  S
O1427     Zn1433   1.986       .  S
O1427      C1443   1.273       .  A
C1428      O1444   1.270       .  A
C1428      O1441   1.285       .  A
C1428      C1451   1.479       .  S
O1429      C1442   1.279       .  A
O1429     Cd1436   2.120       .  S
O1430      C1448   1.270       .  A
O1430     Cd1439   2.042       .  S
O1431      C1445   1.274       .  A
O1432      C1443   1.269       .  A
O1432     Cd1435   2.070       .  S
Zn1433     O1444   2.004       .  S
Zn1433     O1446   1.930       .  S
Zn1433     O1438   1.856       .  S
O1434      C1445   1.291       .  A
Cd1435     O1437   2.052       .  S
Cd1435     O1438   1.968       .  S
Cd1436     O1440   2.103       .  S
Cd1436     O1449   2.115       .  S
Cd1436     O1438   1.998       .  S
O1437      C1447   1.276       .  A
O1438     Cd1439   1.958       .  S
Cd1439     O1441   2.132       .  S
O1440      C1447   1.280       .  A
C1442      O1446   1.263       .  A
C1443      C1511   1.454       .  S
C1448      O1449   1.285       .  A
C1448      C1514   1.470       .  S
O1450     Zn1456   1.986       .  S
O1450      C1466   1.273       .  A
C1451      O1467   1.270       .  A
C1451      O1464   1.285       .  A
O1452      C1465   1.279       .  A
O1452     Cd1459   2.121       .  S
O1453      C1471   1.270       .  A
O1453     Cd1462   2.042       .  S
O1454      C1468   1.274       .  A
O1454     Cd1458   2.036       .  S
O1455      C1466   1.269       .  A
O1455     Cd1458   2.070       .  S
Zn1456     O1467   2.004       .  S
Zn1456     O1469   1.930       .  S
Zn1456     O1461   1.855       .  S
O1457      C1468   1.291       .  A
O1457     Cd1462   2.127       .  S
Cd1458     O1460   2.052       .  S
Cd1458     O1461   1.968       .  S
Cd1459     O1463   2.103       .  S
Cd1459     O1472   2.114       .  S
Cd1459     O1461   1.998       .  S
O1460      C1470   1.276       .  A
O1461     Cd1462   1.958       .  S
Cd1462     O1464   2.132       .  S
O1463      C1470   1.280       .  A
C1465      O1469   1.263       .  A
C1465      C1489   1.454       .  S
C1468      C1494   1.470       .  S
C1470      C1562   1.472   1_554  S
C1471      O1472   1.285       .  A
O1473     Zn1479   1.986       .  S
O1473      C1489   1.273       .  A
C1474      O1490   1.270       .  A
C1474      C1497   1.479       .  S
O1475      C1488   1.279       .  A
O1476      C1494   1.270       .  A
O1476     Cd1485   2.042       .  S
O1477      C1491   1.274       .  A
O1477     Cd1481   2.036       .  S
O1478      C1489   1.269       .  A
Zn1479     O1490   2.004       .  S
Zn1479     O1492   1.931       .  S
Zn1479     O1484   1.856   1_565  S
O1480      C1491   1.291       .  A
O1480     Cd1485   2.126       .  S
Cd1481     O1483   2.053       .  S
Cd1482     O1486   2.103       .  S
Cd1482     O1495   2.115       .  S
O1483      C1493   1.276       .  A
Cd1485     O1487   2.132       .  S
O1486      C1493   1.280       .  A
C1488      O1492   1.263       .  A
C1494      O1495   1.285       .  A
O1496     Zn1502   1.986       .  S
O1496      C1512   1.273       .  A
C1497      O1513   1.270       .  A
C1497      O1510   1.285       .  A
O1498      C1511   1.279       .  A
O1498     Cd1505   2.120       .  S
O1499      C1517   1.270       .  A
O1500      C1514   1.274       .  A
O1501      C1512   1.269       .  A
O1501     Cd1504   2.070       .  S
Zn1502     O1513   2.004       .  S
Zn1502     O1515   1.930       .  S
Zn1502     O1507   1.856       .  S
O1503     Cd1508   2.127       .  S
Cd1504     O1506   2.052       .  S
Cd1504     O1507   1.968       .  S
Cd1505     O1509   2.103       .  S
Cd1505     O1507   1.998       .  S
O1506      C1516   1.276       .  A
O1507     Cd1508   1.958       .  S
Cd1508     O1510   2.132       .  S
O1509      C1516   1.280       .  A
C1511      O1515   1.263       .  A
C1517      O1518   1.285       .  A
O1519     Zn1525   1.986       .  S
O1519      C1535   1.273       .  A
C1520      O1536   1.270       .  A
C1520      O1533   1.285       .  A
C1520      C1543   1.479       .  S
O1521      C1534   1.279       .  A
O1521     Cd1528   2.120       .  S
O1522      C1540   1.270       .  A
O1522     Cd1531   2.042       .  S
O1523      C1537   1.274       .  A
O1524      C1535   1.269       .  A
O1524     Cd1527   2.071       .  S
Zn1525     O1536   2.003       .  S
Zn1525     O1538   1.930       .  S
Zn1525     O1530   1.856       .  S
O1526      C1537   1.291       .  A
Cd1527     O1529   2.053       .  S
Cd1527     O1530   1.968       .  S
Cd1528     O1532   2.103       .  S
Cd1528     O1541   2.114       .  S
Cd1528     O1530   1.998       .  S
O1529      C1539   1.276       .  A
O1530     Cd1531   1.958       .  S
Cd1531     O1533   2.132       .  S
O1532      C1539   1.280       .  A
C1534      O1538   1.263       .  A
C1534      C1581   1.453       .  S
C1535      C1649   1.454       .  S
C1537      C1586   1.470       .  S
C1540      O1541   1.285       .  A
C1540      C1652   1.470       .  S
O1542     Zn1548   1.986       .  S
O1542      C1558   1.273       .  A
C1543      O1559   1.270       .  A
C1543      O1556   1.285       .  A
O1544      C1557   1.279       .  A
O1544     Cd1551   2.120       .  S
O1545      C1563   1.270       .  A
O1545     Cd1554   2.042       .  S
O1546      C1560   1.274       .  A
O1546     Cd1550   2.036       .  S
O1547      C1558   1.269       .  A
O1547     Cd1550   2.071       .  S
Zn1548     O1559   2.004       .  S
Zn1548     O1561   1.930       .  S
Zn1548     O1553   1.855       .  S
O1549      C1560   1.291       .  A
O1549     Cd1554   2.126       .  S
Cd1550     O1552   2.053       .  S
Cd1550     O1553   1.968       .  S
Cd1551     O1555   2.102       .  S
Cd1551     O1564   2.114       .  S
Cd1551     O1553   1.998       .  S
O1552      C1562   1.276       .  A
O1553     Cd1554   1.958       .  S
Cd1554     O1556   2.132       .  S
O1555      C1562   1.280       .  A
C1557      O1561   1.263       .  A
C1557      C1627   1.453       .  S
C1558      C1603   1.454       .  S
C1560      C1632   1.470       .  S
C1563      O1564   1.285       .  A
C1563      C1606   1.470       .  S
O1565     Zn1571   1.986       .  S
O1565      C1581   1.273       .  A
C1566      O1582   1.270       .  A
C1566      O1579   1.285       .  A
C1566      C1589   1.480       .  S
O1567      C1580   1.279       .  A
O1567     Cd1574   2.120       .  S
O1568      C1586   1.270       .  A
O1569      C1583   1.274       .  A
O1569     Cd1573   2.035       .  S
O1570      C1581   1.269       .  A
O1570     Cd1573   2.070       .  S
Zn1571     O1582   2.004       .  S
Zn1571     O1584   1.930       .  S
Zn1571     O1576   1.856       .  S
O1572      C1583   1.291       .  A
O1572     Cd1577   2.127       .  S
Cd1573     O1575   2.052       .  S
Cd1573     O1576   1.968       .  S
Cd1574     O1578   2.103       .  S
Cd1574     O1576   1.998       .  S
O1575      C1585   1.276       .  A
O1576     Cd1577   1.958       .  S
Cd1577     O1579   2.134       .  S
O1578      C1585   1.280       .  A
C1580      O1584   1.263       .  A
C1580      C1650   1.454       .  S
C1583      C1655   1.470       .  S
C1586      O1587   1.285       .  A
O1588     Zn1594   1.987       .  S
O1588      C1604   1.274       .  A
C1589      O1605   1.270       .  A
O1590      C1603   1.279       .  A
O1590     Cd1597   2.120       .  S
O1591      C1609   1.270       .  A
O1591     Cd1600   2.042       .  S
O1592      C1606   1.274       .  A
O1593      C1604   1.269       .  A
O1593     Cd1596   2.070       .  S
Zn1594     O1605   2.005       .  S
Zn1594     O1607   1.930       .  S
Zn1594     O1599   1.856       .  S
O1595      C1606   1.291       .  A
O1595     Cd1600   2.127       .  S
Cd1596     O1599   1.968       .  S
Cd1597     O1599   1.998       .  S
O1598      C1608   1.276       .  A
Cd1600     O1602   2.133   1_565  S
O1601      C1608   1.280       .  A
C1603      O1607   1.263       .  A
C1604      C1626   1.454       .  S
C1609      O1610   1.285       .  A
C1609      C1629   1.470       .  S
O1611     Zn1617   1.986       .  S
O1611      C1627   1.273       .  A
C1612      O1628   1.270       .  A
C1612      C1635   1.479       .  S
O1613      C1626   1.279       .  A
O1613     Cd1620   2.120   1_655  S
O1614      C1632   1.270       .  A
O1614     Cd1623   2.042       .  S
O1615      C1629   1.274       .  A
O1616      C1627   1.269       .  A
O1616     Cd1619   2.070   1_655  S
Zn1617     O1628   2.003       .  S
Zn1617     O1630   1.930       .  S
Zn1617     O1622   1.856       .  S
O1618      C1629   1.291       .  A
O1618     Cd1623   2.127       .  S
Cd1619     O1622   1.968   1_455  S
Cd1620     O1622   1.998   1_455  S
O1621      C1631   1.276       .  A
Cd1623     O1625   2.133       .  S
O1624      C1631   1.280       .  A
C1626      O1630   1.263       .  A
C1632      O1633   1.285       .  A
O1634     Zn1640   1.987       .  S
O1634      C1650   1.274       .  A
C1635      O1651   1.270       .  A
C1635      O1648   1.285       .  A
O1636      C1649   1.279       .  A
O1636     Cd1643   2.121       .  S
O1637      C1655   1.270       .  A
O1638      C1652   1.274       .  A
O1639      C1650   1.269       .  A
O1639     Cd1642   2.070       .  S
Zn1640     O1651   2.005       .  S
Zn1640     O1653   1.931       .  S
Zn1640     O1645   1.856       .  S
O1641     Cd1646   2.126       .  S
Cd1642     O1644   2.053       .  S
Cd1642     O1645   1.968       .  S
Cd1643     O1647   2.103       .  S
Cd1643     O1645   1.998       .  S
O1644      C1654   1.276       .  A
O1645     Cd1646   1.958       .  S
Cd1646     O1648   2.132       .  S
O1647      C1654   1.280       .  A
C1649      O1653   1.263       .  A
C1655      O1656   1.285       .  A
