geometry optimzed in LAMMPS
_audit_creation_date              2020-12-01 
_audit_creation_method            'lammps2cif' 
_symmetry_space_group_name_H-M    'P1' 
_symmetry_Int_Tables_number       1 
_symmetry_cell_setting            triclinic 
loop_ 
_symmetry_equiv_pos_as_xyz 
  x,y,z 
_cell_length_a                    47.9529059 
_cell_length_b                    48.10152945808068 
_cell_length_c                    35.14045491410954 
_cell_angle_alpha                 90.23850782486987 
_cell_angle_beta                  90.30191233231866 
_cell_angle_gamma                 119.98513125033433 
loop_ 
_atom_site_label 
_atom_site_type_symbol 
_atom_site_fract_x 
_atom_site_fract_y 
_atom_site_fract_z 
_atom_site_charge 
O1          O  0.19611768  0.00983831  0.46979580    -0.77600
C2          C  0.26154193  0.10884230  0.49653394     0.83400
O3          O  0.29068211  0.02104054  0.41610491    -0.78700
O4          O  0.34122006  0.09405660  0.02727687    -0.80200
O5          O  0.23688844  0.01298536  0.08580970    -0.80000
O6          O  0.20224270  0.47213219  0.00009761    -0.78600
Zn7        Zn  0.24236960  0.04415897  0.46421360     1.55700
O8          O  0.28342546  0.05895413  0.08924907    -0.80000
Cd9        Cd  0.24810964  0.00140123  0.03291702     1.59700
Cd10       Cd  0.30356127  0.03986661  0.47006835     1.59600
O11         O  0.29376450  0.00448288  0.05277142    -0.80000
O12         O  0.26829990  0.03836413  0.49971224    -1.90500
Cd13       Cd  0.29240852  0.07370390  0.03450500     1.59900
O14         O  0.32766088  0.02543982  0.50403998    -0.80000
O15         O  0.27827020  0.10633189  0.02318768    -0.78600
C16         C  0.27428672  0.02991058  0.39633306     0.83900
C17         C  0.18516631  0.48071375  0.47923280     0.83600
O18         O  0.24729594  0.08755404  0.47084371    -0.77600
C19         C  0.25955621  0.03560753  0.10511340     0.84400
O20         O  0.25728272  0.04051923  0.41166254    -0.77700
C21         C  0.32249591  0.01732292  0.03872678     0.84500
C22         C  0.35406648  0.10157870  0.99474871     0.84800
O23         O  0.33865764  0.08677789  0.46485232    -0.80100
O24         O  0.34530127  0.09137304  0.22283303    -0.77600
C25         C  0.30065839  0.48281956  0.22659100     0.83400
O26         O  0.23601902  0.02773166  0.16644083    -0.78700
O27         O  0.21355674  0.00348536  0.29897145    -0.80200
O28         O  0.27743773  0.05587732  0.34021955    -0.80000
O29         O  0.33685966  0.10359316  0.28155038    -0.78600
Zn30       Zn  0.30745867  0.04723071  0.21408841     1.55700
O31         O  0.27757713  0.00997533  0.33471939    -0.80000
Cd32       Cd  0.28925135  0.07343231  0.28712201     1.59700
Cd33       Cd  0.24394584  0.04626594  0.22071905     1.59600
O34         O  0.26905180  0.10099607  0.27856936    -0.80000
O35         O  0.27570612  0.04018380  0.24933570    -1.90500
Cd36       Cd  0.25702587  0.00157435  0.28016749     1.59900
O37         O  0.25915354  0.09407188  0.21648150    -0.80000
O38         O  0.27477635  0.47370244  0.24698758    -0.78600
C39         C  0.26083209  0.03523183  0.14651204     0.83900
C40         C  0.35385136  0.10997698  0.25177943     0.83600
O41         O  0.31879905  0.01216965  0.21769693    -0.77600
C42         C  0.27677094  0.03161177  0.35505003     0.84400
O43         O  0.28846854  0.04467853  0.16167595    -0.77700
C44         C  0.26346151  0.11000566  0.24702253     0.84500
C45         C  0.20091432  0.02067172  0.28832942     0.84800
O46         O  0.20735626  0.03452579  0.25637924    -0.80100
O47         O  0.32018125  0.29242062  0.46965872    -0.77600
C48         C  0.34776547  0.21883796  0.49829159     0.83400
O49         O  0.23571905  0.19508930  0.41500775    -0.78700
O50         O  0.25940218  0.14985712  0.02846265    -0.80200
O51         O  0.27863668  0.25352188  0.08420146    -0.80000
O52         O  0.27505422  0.28662209  0.99657244    -0.78600
Zn53       Zn  0.30732623  0.24516800  0.46465556     1.55700
O54         O  0.27786715  0.20712945  0.08930762    -0.80000
Cd55       Cd  0.25695359  0.24135042  0.03015273     1.59700
Cd56       Cd  0.24215946  0.18330371  0.46934733     1.59600
O57         O  0.21365558  0.19632905  0.04928613    -0.80000
O58         O  0.27437476  0.22052875  0.49864117    -1.90500
Cd59       Cd  0.28480985  0.19783750  0.03569835     1.59900
O60         O  0.20468946  0.15933665  0.50457633    -0.80000
O61         O  0.32981978  0.20764680  0.02707305    -0.78600
C62         C  0.26082520  0.21315149  0.39594611     0.83900
C63         C  0.30142833  0.30345318  0.47704203     0.83600
O64         O  0.34272941  0.23404324  0.47183347    -0.77600
C65         C  0.27839595  0.23134528  0.10429858     0.84400
O66         O  0.28820636  0.23077145  0.41194282    -0.77700
C67         C  0.19965206  0.16667315  0.03756868     0.84500
C68         C  0.25881546  0.13738387  0.99649032     0.84800
O69         O  0.25738874  0.15034584  0.46561933    -0.80100
O70         O  0.25053606  0.14703609  0.21999697    -0.77600
C71         C  0.18663957  0.19139823  0.22736707     0.83400
O72         O  0.29466054  0.25616777  0.16522811    -0.78700
O73         O  0.29453834  0.27796906  0.29981384    -0.80200
O74         O  0.28448752  0.21307372  0.33902471    -0.80000
O75         O  0.27800305  0.15891584  0.27500600    -0.78600
Zn76       Zn  0.24447371  0.18507305  0.21313436     1.55700
O77         O  0.23804230  0.21259528  0.33467813    -0.80000
Cd78       Cd  0.29238031  0.20543050  0.28457700     1.59700
Cd79       Cd  0.30687049  0.24944876  0.21904514     1.59600
O80         O  0.34062145  0.22994272  0.27677020    -0.80000
O81         O  0.27004372  0.21715842  0.24837045    -1.90500
Cd82       Cd  0.24943718  0.23435375  0.28102364     1.59900
O83         O  0.34167315  0.23647323  0.21437260    -0.80000
O84         O  0.20343668  0.21710580  0.24834965    -0.78600
C85         C  0.27710619  0.23104975  0.14560223     0.83900
C86         C  0.26373382  0.14013536  0.24706563     0.83600
O87         O  0.19801621  0.17348279  0.21773849    -0.77600
C88         C  0.26039502  0.21249591  0.35446873     0.84400
O89         O  0.25955856  0.20371937  0.16097894    -0.77700
C90         C  0.35453815  0.23410274  0.24500595     0.84500
C91         C  0.32378948  0.29249697  0.28702734     0.84800
O92         O  0.33030465  0.28737118  0.25372132    -0.80100
O93         O  0.40313161  0.24257894  0.21668789    -0.77600
C94         C  0.01148283  0.30447862  0.22455302     0.83400
O95         O  0.46148837  0.18753943  0.16730829    -0.78700
O96         O  0.49024740  0.19739918  0.30063852    -0.80200
O97         O  0.43684189  0.21615466  0.33987624    -0.80000
O98         O  0.38973800  0.22164123  0.27485250    -0.78600
Zn99       Zn  0.44640893  0.24520000  0.20991066     1.55700
O100        O  0.48726411  0.25615242  0.33783683    -0.80000
Cd101      Cd  0.42000260  0.20526914  0.28594737     1.59700
Cd102      Cd  0.44594022  0.18333833  0.22250181     1.59600
O103        O  0.39310731  0.15653156  0.28178724    -0.80000
O104        O  0.45385972  0.22300587  0.24908054    -1.90500
Cd105      Cd  0.49305630  0.24344583  0.28159389     1.59900
O106        O  0.39789532  0.15167538  0.21981916    -0.80000
O107        O  0.02050080  0.28967955  0.24868719    -0.78600
C108        C  0.45306653  0.20317406  0.14568536     0.83900
C109        C  0.38436514  0.23329298  0.24521080     0.83600
O110        O  0.48291561  0.29085966  0.21090686    -0.77600
C111        C  0.46248094  0.23670691  0.35672557     0.84400
O112        O  0.44601762  0.22366448  0.15928189    -0.77700
C113        C  0.38332033  0.14060015  0.25094610     0.84500
C114        C  0.47225731  0.16734120  0.29075174     0.84800
O115        O  0.45733050  0.15931282  0.25927451    -0.80100
O116        O  0.37828773  0.19765536  0.02344329    -0.77600
C117        C  0.44835038  0.19685362  0.10454856     0.83400
O118        O  0.48582977  0.28675650  0.51583592    -0.78700
O119        O  0.48885971  0.17217188  0.99514169    -0.80200
O120        O  0.38784407  0.14963056  0.46593235    -0.80000
O121        O  0.39217766  0.22029198  0.46727522    -0.78600
Zn122      Zn  0.42338883  0.21475976  0.03821843     1.55700
O123        O  0.40706446  0.13612031  0.01688083    -0.80000
Cd124      Cd  0.41807340  0.19708407  0.46126192     1.59700
Cd125      Cd  0.48710023  0.24749410  0.48160228     1.59600
O126        O  0.43822213  0.20780932  0.41047436    -0.80000
O127        O  0.44905811  0.21003139  0.00182375    -1.90500
Cd128      Cd  0.45323716  0.17527220  0.02549406     1.59900
O129        O  0.48173539  0.25507788  0.42190149    -0.80000
O130        O  0.46310400  0.18593863  0.08460924    -0.78600
C131        C  0.46257795  0.28534697  0.03656045     0.83900
C132        C  0.37411414  0.21236471  0.99609065     0.83600
O133        O  0.42867736  0.20378869  0.08942003    -0.77600
C134        C  0.38519106  0.13016743  0.49182688     0.84400
O135        O  0.43818488  0.25894097  0.04435771    -0.77700
C136        C  0.46152696  0.23386055  0.39861731     0.84500
C137        C  0.01185323  0.19460960  0.47647861     0.84800
O138        O  0.01591941  0.22355596  0.47487779    -0.80100
O139        O  0.31438802  0.34076588  0.13448147    -0.77600
C140        C  0.21651288  0.30424701  0.16218311     0.83400
O141        O  0.30047512  0.42328317  0.08166609    -0.78700
O142        O  0.22643164  0.39131865  0.19208770    -0.80200
O143        O  0.31523295  0.38044939  0.25047719    -0.80000
O144        O  0.35257938  0.38631119  0.16249954    -0.78600
Zn145      Zn  0.27952250  0.35179294  0.12864639     1.55700
O146        O  0.26797115  0.37813646  0.25473004    -0.80000
Cd147      Cd  0.32407161  0.40229301  0.19683640     1.59700
Cd148      Cd  0.28144190  0.41626707  0.13548513     1.59600
O149        O  0.32140708  0.44514446  0.21646850    -0.80000
O150        O  0.28597658  0.38365311  0.16425427    -1.90500
Cd151      Cd  0.25208165  0.36915414  0.20029828     1.59900
O152        O  0.29417822  0.45391667  0.17073226    -0.80000
O153        O  0.22175974  0.32200918  0.19128967    -0.78600
C154        C  0.29346814  0.39846339  0.06172577     0.83900
C155        C  0.34382682  0.36026933  0.14230960     0.83600
O156        O  0.23557158  0.31273849  0.13403385    -0.77600
C157        C  0.29237216  0.37918765  0.27025877     0.84400
O158        O  0.28370164  0.37098011  0.07667811    -0.75900
C159        C  0.30597707  0.45915604  0.20411658     0.84500
C160        C  0.21793945  0.39811626  0.16088486     0.84800
O161        O  0.23371647  0.40235259  0.13041741    -0.80100
O162        O  0.23611693  0.40876811  0.38509085    -0.77600
C163        C  0.34477643  0.47072274  0.39439200     0.83400
O164        O  0.29907049  0.36182904  0.33131355    -0.78700
O165        O  0.32240671  0.36191791  0.46630094    -0.80200
O166        O  0.26820489  0.37620041  0.00481798    -0.80000
O167        O  0.22111061  0.38382878  0.44100774    -0.78600
Zn168      Zn  0.28041276  0.41407048  0.37965362     1.55700
O169        O  0.31601607  0.42041603  0.00084318    -0.80000
Cd170      Cd  0.25235799  0.36824262  0.45069314     1.59700
Cd171      Cd  0.28114543  0.35029333  0.38590850     1.59600
O172        O  0.22695805  0.32025141  0.44381455    -0.80000
O173        O  0.28654680  0.38802692  0.41468522    -1.90500
Cd174      Cd  0.32500048  0.40766648  0.44701139     1.59900
O175        O  0.23299729  0.31698384  0.38175260    -0.80000
O176        O  0.35365829  0.45329863  0.41404298    -0.78600
C177        C  0.29313115  0.38054575  0.31175041     0.83900
C178        C  0.21624828  0.39692829  0.41236063     0.83600
O179        O  0.31528866  0.46024528  0.38603720    -0.77600
C180        C  0.29282699  0.39920849  0.02039081     0.84400
O181        O  0.28450078  0.39915391  0.32716855    -0.77700
C182        C  0.21739101  0.30550149  0.41230541     0.84500
C183        C  0.30675267  0.33231881  0.45419692     0.84800
O184        O  0.29429904  0.32545080  0.42107221    -0.80100
O185        O  0.17875903  0.25596364  0.38502013    -0.77600
C186        C  0.13236570  0.14810668  0.39258398     0.83400
O187        O  0.06831270  0.19345305  0.33071756    -0.78700
O188        O  0.04519347  0.16943374  0.46289815    -0.80200
O189        O  0.11410048  0.22470151  0.00462081    -0.80000
O190        O  0.16875941  0.27167855  0.44077339    -0.78600
Zn191      Zn  0.13966426  0.21245140  0.37837521     1.55700
O192        O  0.10961333  0.17653965  0.99990756    -0.80000
Cd193      Cd  0.12189177  0.24049926  0.45040014     1.59700
Cd194      Cd  0.07635646  0.21219970  0.38479424     1.59600
O195        O  0.09837029  0.26518681  0.44289122    -0.80000
O196        O  0.10814790  0.20633476  0.41390903    -1.90500
Cd197      Cd  0.08903347  0.16781377  0.44516573     1.59900
O198        O  0.09134035  0.25996955  0.38034725    -0.80000
O199        O  0.10652880  0.13935914  0.41292041    -0.78600
C200        C  0.09313145  0.20062095  0.31098793     0.83900
C201        C  0.18683734  0.27593839  0.41245145     0.83600
O202        O  0.15044456  0.17722444  0.38289052    -0.77600
C203        C  0.11185961  0.19983791  0.01984026     0.84400
O204        O  0.12060458  0.20963567  0.32626556    -0.77700
C205        C  0.09373005  0.27484821  0.41124414     0.84500
C206        C  0.03314383  0.18715284  0.45222022     0.84800
O207        O  0.03970906  0.20084597  0.42016921    -0.80100
O208        O  0.03063295  0.17824732  0.13452233    -0.77600
C209        C  0.09594465  0.27733832  0.16156561     0.83400
O210        O  0.12808217  0.19206797  0.08117775    -0.78700
O211        O  0.17248392  0.26450067  0.19354802    -0.80200
O212        O  0.07020389  0.17906800  0.24982028    -0.80000
O213        O  0.03662584  0.14024956  0.16442582    -0.78600
Zn214      Zn  0.07705397  0.21269878  0.12866331     1.55700
O215        O  0.11592179  0.22555397  0.25451627    -0.80000
Cd216      Cd  0.08267105  0.16899586  0.19685687     1.59700
Cd217      Cd  0.13999038  0.21061462  0.13564430     1.59600
O218        O  0.12817317  0.17149841  0.21714045    -0.80000
O219        O  0.10282625  0.20650253  0.16409474    -1.90500
Cd220      Cd  0.12423249  0.24087449  0.20022921     1.59900
O221        O  0.16412818  0.19715845  0.17124623    -0.80000
O222        O  0.10990827  0.27295018  0.18984039    -0.78600
C223        C  0.11014883  0.19897792  0.06125776     0.83900
C224        C  0.01949349  0.14907100  0.14405023     0.83600
O225        O  0.08296227  0.25699135  0.13457945    -0.77600
C226        C  0.09225170  0.20163188  0.26972209     0.84400
O227        O  0.09204044  0.20836782  0.07636551    -0.77700
C228        C  0.15758723  0.18614608  0.20478983     0.84500
C229        C  0.18669261  0.27384540  0.16195608     0.84800
O230        O  0.17425843  0.25829053  0.13129469    -0.80100
O231        O  0.15266899  0.46156373  0.13323190    -0.77600
C232        C  0.18820323  0.39877396  0.16139011     0.83400
O233        O  0.06936279  0.36320717  0.08072043    -0.78700
O234        O  0.10236534  0.32264016  0.19241964    -0.80200
O235        O  0.11367073  0.42263688  0.25052926    -0.80000
O236        O  0.10906664  0.45578036  0.16415300    -0.78600
Zn237      Zn  0.14122418  0.41541702  0.12776864     1.55700
O238        O  0.11575786  0.37770145  0.25418867    -0.80000
Cd239      Cd  0.09176174  0.40988262  0.19666207     1.59700
Cd240      Cd  0.07726925  0.35253249  0.13484495     1.59600
O241        O  0.04967423  0.36334596  0.21638520    -0.80000
O242        O  0.10979572  0.39029217  0.16357382    -1.90500
Cd243      Cd  0.12414626  0.37056757  0.19988809     1.59900
O244        O  0.03952986  0.32808933  0.16922653    -0.80000
O245        O  0.17088934  0.38685296  0.19064099    -0.78600
C246        C  0.09386629  0.38098059  0.06070030     0.83900
C247        C  0.13463821  0.47268533  0.14332246     0.83600
O248        O  0.17982970  0.40978785  0.13342968    -0.77600
C249        C  0.11455193  0.40076281  0.26999475     0.84400
O250        O  0.12148221  0.39951416  0.07565369    -0.77700
C251        C  0.03515654  0.33408373  0.20314345     0.84500
C252        C  0.09597912  0.30742490  0.16113269     0.84800
O253        O  0.09138875  0.31874986  0.13061868    -0.80100
O254        O  0.08306309  0.31324094  0.38322785    -0.77600
C255        C  0.01917079  0.35765465  0.39198858     0.83400
O256        O  0.12977602  0.42375004  0.33203641    -0.78700
O257        O  0.12680483  0.44322362  0.46703492    -0.80200
O258        O  0.11625837  0.37875065  0.00382619    -0.80000
O259        O  0.10532607  0.32208765  0.44131180    -0.78600
Zn260      Zn  0.07740842  0.35172796  0.37702924     1.55700
O261        O  0.06976554  0.37806026  0.99966541    -0.80000
Cd262      Cd  0.12260050  0.36911508  0.44982665     1.59700
Cd263      Cd  0.14050317  0.41542969  0.38608408     1.59600
O264        O  0.17066593  0.39015357  0.44268990    -0.80000
O265        O  0.10241732  0.38297605  0.41336222    -1.90500
Cd266      Cd  0.08172436  0.40007995  0.44632118     1.59900
O267        O  0.17463791  0.40170342  0.38130172    -0.80000
O268        O  0.03557891  0.38290138  0.41380984    -0.78600
C269        C  0.11218640  0.39931255  0.31129961     0.83900
C270        C  0.09353945  0.30475405  0.41169975     0.83600
O271        O  0.03103893  0.34042138  0.38122465    -0.77600
C272        C  0.09250182  0.37870874  0.01937426     0.84400
O273        O  0.09372643  0.37165590  0.32549327    -0.77700
C274        C  0.18602359  0.39689766  0.41171956     0.84500
C275        C  0.15663122  0.45685314  0.45616086     0.84800
O276        O  0.16412072  0.45156909  0.42344775    -0.80100
O277        O  0.14763593  0.00632054  0.30179097    -0.77600
C278        C  0.04952169  0.46969800  0.32833521     0.83400
O279        O  0.13109383  0.08852307  0.24876989    -0.78700
O280        O  0.05863252  0.05670291  0.36026345    -0.80200
O281        O  0.14853536  0.04744021  0.41787284    -0.80000
O282        O  0.18557489  0.05134810  0.33089158    -0.78600
Zn283      Zn  0.11276016  0.01750987  0.29543142     1.55700
O284        O  0.10037351  0.04322325  0.42172695    -0.80000
Cd285      Cd  0.15685907  0.06815104  0.36381038     1.59700
Cd286      Cd  0.11244256  0.08061866  0.30272900     1.59600
O287        O  0.15395248  0.11108020  0.38275697    -0.80000
O288        O  0.11844984  0.04891072  0.33144178    -1.90500
Cd289      Cd  0.08433968  0.03432183  0.36747061     1.59900
O290        O  0.12473590  0.11796232  0.33785829    -0.80000
O291        O  0.05417364  0.48726520  0.35751441    -0.78600
C292        C  0.12516530  0.06418177  0.22850925     0.83900
C293        C  0.17695914  0.02526673  0.31079106     0.83600
O294        O  0.06896839  0.47841622  0.30056755    -0.77600
C295        C  0.12533625  0.04565251  0.43738404     0.84400
O296        O  0.11665840  0.03682936  0.24320969    -0.77700
C297        C  0.13752075  0.12415713  0.37070310     0.84500
C298        C  0.04959296  0.06301888  0.32913955     0.84800
O299        O  0.06458483  0.06619997  0.29829090    -0.80100
O300        O  0.06796765  0.07549840  0.05206443    -0.77600
C301        C  0.17601431  0.13826260  0.06031089     0.83400
O302        O  0.13445520  0.53125162  0.49887816    -0.78700
O303        O  0.15502487  0.03104315  0.13347982    -0.80200
O304        O  0.10057119  0.04180950  0.17108806    -0.80000
O305        O  0.05261662  0.04896133  0.10708161    -0.78600
Zn306      Zn  0.11205693  0.08099511  0.04566622     1.55700
O307        O  0.14680496  0.08786087  0.16788644    -0.80000
Cd308      Cd  0.08477280  0.03432500  0.11661067     1.59700
Cd309      Cd  0.11485500  0.51913035  0.05217084     1.59600
O310        O  0.06161902  0.48636993  0.10808922    -0.80000
O311        O  0.11891624  0.05603017  0.08117264    -1.90500
Cd312      Cd  0.15682853  0.07617356  0.11409095     1.59900
O313        O  0.06727586  0.48496263  0.04574230    -0.80000
O314        O  0.18505430  0.12157948  0.08111338    -0.78600
C315        C  0.12632719  0.04798294  0.47870293     0.83900
C316        C  0.04805676  0.06303308  0.07918303     0.83600
O317        O  0.14661476  0.12721384  0.05102005    -0.77600
C318        C  0.12442765  0.06539587  0.18712080     0.84400
O319        O  0.11586538  0.06533565  0.49347896    -0.77700
C320        C  0.05217131  0.47222281  0.07618839     0.84500
C321        C  0.13948861  0.50152785  0.12122974     0.84800
O322        O  0.12746829  0.49471547  0.08795924    -0.80100
O323        O  0.36454196  0.34542338  0.29802126    -0.77600
C324        C  0.43047160  0.44463612  0.32551896     0.83400
O325        O  0.46135500  0.35826660  0.24552427    -0.78700
O326        O  0.00570619  0.42922286  0.35899400    -0.80200
O327        O  0.40248842  0.34691900  0.41489056    -0.80000
O328        O  0.36946911  0.30766170  0.33020723    -0.78600
Zn329      Zn  0.41086229  0.37985092  0.29255197     1.55700
O330        O  0.44808445  0.39346494  0.41885393    -0.80000
Cd331      Cd  0.41532130  0.33623841  0.36237056     1.59700
Cd332      Cd  0.97277820  0.37644876  0.30019257     1.59600
O333        O  0.46083505  0.33894708  0.38284477    -0.80000
O334        O  0.43578741  0.37300114  0.32850410    -1.90500
Cd335      Cd  0.45756544  0.40740857  0.36442782     1.59900
O336        O  0.99609290  0.36189892  0.33554293    -0.80000
O337        O  0.44495284  0.44032840  0.35319605    -0.78600
C338        C  0.44415893  0.36595484  0.22537583     0.83900
C339        C  0.35287142  0.31648659  0.30890323     0.83600
O340        O  0.41678558  0.42416790  0.29879066    -0.77600
C341        C  0.42429567  0.36998777  0.43442091     0.84400
O342        O  0.42632685  0.37576630  0.24032156    -0.77700
C343        C  0.98995555  0.35228459  0.36969535     0.84500
C344        C  0.01991874  0.43916896  0.32754408     0.84800
O345        O  0.00753357  0.42410014  0.29658805    -0.80100
O346        O  0.51337155  0.42275521  0.04808018    -0.77600
C347        C  0.46049167  0.31340310  0.05201000     0.83400
O348        O  0.40107950  0.36252649  0.49607091    -0.78700
O349        O  0.37996614  0.33856800  0.12932971    -0.80200
O350        O  0.44925395  0.39245384  0.16908064    -0.80000
O351        O  0.00424425  0.43790473  0.10483385    -0.78600
Zn352      Zn  0.47296527  0.37969675  0.04088400     1.55700
O353        O  0.44418738  0.34419155  0.16363098    -0.80000
Cd354      Cd  0.45750790  0.40835844  0.11501799     1.59700
Cd355      Cd  0.41000004  0.38097582  0.05064268     1.59600
O356        O  0.43578752  0.43472250  0.10905206    -0.80000
O357        O  0.44230955  0.37473936  0.07790218    -1.90500
Cd358      Cd  0.42276102  0.33684085  0.10949969     1.59900
O359        O  0.42541749  0.42873971  0.04705068    -0.80000
O360        O  0.43685420  0.30781320  0.07490722    -0.78600
C361        C  0.42557097  0.36959481  0.47568377     0.83900
C362        C  0.02189559  0.44237331  0.07605423     0.83600
O363        O  0.48023629  0.34162367  0.04052833    -0.77600
C364        C  0.44650646  0.36730644  0.18398593     0.84400
O365        O  0.45325641  0.37856514  0.49019808    -0.77700
C366        C  0.42934956  0.44387000  0.07815643     0.84500
C367        C  0.36749672  0.35590306  0.11915393     0.84800
O368        O  0.37385488  0.36987279  0.08726495    -0.80100
O369        O  0.48668662  0.12857111  0.30508675    -0.77600
C370        C  0.02026166  0.06447128  0.33009740     0.83400
O371        O  0.40203423  0.53011749  0.24875325    -0.78700
O372        O  0.43587008  0.48886237  0.35785325    -0.80200
O373        O  0.44599191  0.08818328  0.41767454    -0.80000
O374        O  0.44108672  0.12118706  0.33219951    -0.78600
Zn375      Zn  0.47392584  0.08211134  0.29672668     1.55700
O376        O  0.44647799  0.04243403  0.42170168    -0.80000
Cd377      Cd  0.42372531  0.07540065  0.36421049     1.59700
Cd378      Cd  0.41017966  0.51854984  0.30245772     1.59600
O379        O  0.38130114  0.02927674  0.38360693    -0.80000
O380        O  0.44214847  0.05625079  0.33136314    -1.90500
Cd381      Cd  0.45634567  0.03644968  0.36756046     1.59900
O382        O  0.37408964  0.49280006  0.33905874    -0.80000
O383        O  0.00353242  0.05384892  0.36000297    -0.78600
C384        C  0.42650882  0.04879500  0.22907615     0.83900
C385        C  0.46764696  0.13892827  0.31336755     0.83600
O386        O  0.51159133  0.07485970  0.30176661    -0.77600
C387        C  0.44614320  0.06604061  0.43731206     0.84400
O388        O  0.45396490  0.06753081  0.24435086    -0.77700
C389        C  0.36840321  0.49961501  0.37199528     0.84500
C390        C  0.43025106  0.47451270  0.32598915     0.84800
O391        O  0.42584863  0.48636497  0.29586665    -0.80100
O392        O  0.41730125  0.48146452  0.05140825    -0.77600
C393        C  0.35223600  0.02380949  0.06056431     0.83400
O394        O  0.46197467  0.09002115  0.49872780    -0.78700
O395        O  0.46090760  0.11126668  0.13350301    -0.80200
O396        O  0.44917521  0.04663002  0.17230408    -0.80000
O397        O  0.43990821  0.49047826  0.10928618    -0.78600
Zn398      Zn  0.41074185  0.01903373  0.04538174     1.55700
O399        O  0.40319590  0.04694082  0.16776157    -0.80000
Cd400      Cd  0.45600003  0.03732370  0.11817679     1.59700
Cd401      Cd  0.97309957  0.08272684  0.05298622     1.59600
O402        O  0.00401192  0.05882888  0.11079100    -0.80000
O403        O  0.43555992  0.05068505  0.08133376    -1.90500
Cd404      Cd  0.41510989  0.06812927  0.11389664     1.59900
O405        O  0.00653725  0.06813535  0.04881842    -0.80000
O406        O  0.36856840  0.04955050  0.08167830    -0.78600
C407        C  0.44427780  0.06523327  0.47859477     0.83900
C408        C  0.42837139  0.47329460  0.07950254     0.83600
O409        O  0.36439621  0.00679340  0.05009836    -0.77600
C410        C  0.42553624  0.04699090  0.18766796     0.84400
O411        O  0.42608416  0.03785341  0.49344246    -0.77700
C412        C  0.01836658  0.06392057  0.07925006     0.84500
C413        C  0.99048239  0.12523367  0.12160300     0.84800
O414        O  0.99732716  0.11999167  0.08852304    -0.80100
O415        O  0.19611745  0.00983909  0.96979157    -0.77600
C416        C  0.26153863  0.10884198  0.99653135     0.83400
O417        O  0.29068099  0.02104019  0.91610504    -0.78700
O418        O  0.34122187  0.09405460  0.52727725    -0.80200
O419        O  0.23689061  0.01298272  0.58580916    -0.80000
O420        O  0.20224531  0.47213071  0.50009645    -0.78600
Zn421      Zn  0.24236911  0.04415987  0.96421128     1.55700
O422        O  0.28342677  0.05895246  0.58924899    -0.80000
Cd423      Cd  0.24811211  0.00139946  0.53291624     1.59700
Cd424      Cd  0.30355968  0.03986679  0.97006849     1.59600
O425        O  0.29376721  0.00448223  0.55277080    -0.80000
O426        O  0.26829846  0.03836530  0.99971205    -1.90500
Cd427      Cd  0.29241050  0.07370253  0.53450540     1.59900
O428        O  0.32765819  0.02543883  0.00404030    -0.80000
O429        O  0.27827375  0.10633170  0.52318909    -0.78600
C430        C  0.27428669  0.02991077  0.89633240     0.83900
C431        C  0.18516493  0.48071504  0.97923133     0.83600
O432        O  0.24729455  0.08755430  0.97084050    -0.77600
C433        C  0.25955751  0.03560515  0.60511299     0.84400
O434        O  0.25728301  0.04052034  0.91166097    -0.77700
C435        C  0.32249870  0.01732355  0.53872635     0.84500
C436        C  0.35406767  0.10157808  0.49474906     0.84800
O437        O  0.33865695  0.08677779  0.96485234    -0.80100
O438        O  0.34530183  0.09137270  0.72283161    -0.77600
C439        C  0.30065995  0.48281999  0.72659091     0.83400
O440        O  0.23602027  0.02773177  0.66643999    -0.78700
O441        O  0.21355638  0.00348533  0.79896997    -0.80200
O442        O  0.27743890  0.05587749  0.84021854    -0.80000
O443        O  0.33686111  0.10359206  0.78154966    -0.78600
Zn444      Zn  0.30745963  0.04722998  0.71408844     1.55700
O445        O  0.27757651  0.00997457  0.83471903    -0.80000
Cd446      Cd  0.28925274  0.07343241  0.78712117     1.59700
Cd447      Cd  0.24394698  0.04626649  0.72071820     1.59600
O448        O  0.26905511  0.10099796  0.77856879    -0.80000
O449        O  0.27570661  0.04018369  0.74933522    -1.90500
Cd450      Cd  0.25702580  0.00157397  0.78016670     1.59900
O451        O  0.25915506  0.09407289  0.71648123    -0.80000
O452        O  0.27477714  0.47370262  0.74698623    -0.78600
C453        C  0.26083338  0.03523010  0.64651157     0.83900
C454        C  0.35385228  0.10997638  0.75177804     0.83600
O455        O  0.31880157  0.01217032  0.71769891    -0.77600
C456        C  0.27677116  0.03161179  0.85504932     0.84400
O457        O  0.28846931  0.04467591  0.66167574    -0.77700
C458        C  0.26346406  0.11000726  0.74702206     0.84500
C459        C  0.20091433  0.02067204  0.78832794     0.84800
O460        O  0.20735693  0.03452652  0.75637798    -0.80100
O461        O  0.32018102  0.29242147  0.96965952    -0.77600
C462        C  0.34777199  0.21885315  0.99825100     0.83400
O463        O  0.23571979  0.19509247  0.91500634    -0.78700
O464        O  0.25941164  0.14986075  0.52846527    -0.80200
O465        O  0.27863762  0.25352313  0.58420210    -0.80000
O466        O  0.27505547  0.28662197  0.49657408    -0.78600
Zn467      Zn  0.30732591  0.24516876  0.96465654     1.55700
O468        O  0.27786933  0.20713148  0.58930862    -0.80000
Cd469      Cd  0.25695481  0.24135007  0.53015373     1.59700
Cd470      Cd  0.24215874  0.18330490  0.96934551     1.59600
O471        O  0.21365770  0.19632783  0.54928823    -0.80000
O472        O  0.27437332  0.22052869  0.99864067    -1.90500
Cd473      Cd  0.28481499  0.19784144  0.53569978     1.59900
O474        O  0.20468864  0.15933761  0.00457514    -0.80000
O475        O  0.32983091  0.20765855  0.52706816    -0.78600
C476        C  0.26082685  0.21315430  0.89594536     0.83900
C477        C  0.30142749  0.30345353  0.97704114     0.83600
O478        O  0.34272944  0.23403980  0.97184388    -0.77600
C479        C  0.27839673  0.23134613  0.60429948     0.84400
O480        O  0.28820764  0.23077305  0.91194282    -0.77700
C481        C  0.19965367  0.16667205  0.53757027     0.84500
C482        C  0.25882010  0.13738493  0.49649272     0.84800
O483        O  0.25738824  0.15034716  0.96561665    -0.80100
O484        O  0.25053710  0.14703684  0.71999729    -0.77600
C485        C  0.18663998  0.19139901  0.72736690     0.83400
O486        O  0.29465895  0.25616862  0.66522904    -0.78700
O487        O  0.29453817  0.27797179  0.79981190    -0.80200
O488        O  0.28448934  0.21307689  0.83902379    -0.80000
O489        O  0.27800587  0.15891802  0.77500513    -0.78600
Zn490      Zn  0.24447357  0.18507332  0.71313473     1.55700
O491        O  0.23804373  0.21259782  0.83467749    -0.80000
Cd492      Cd  0.29238179  0.20543280  0.78457603     1.59700
Cd493      Cd  0.30686988  0.24944852  0.71904451     1.59600
O494        O  0.34062293  0.22994646  0.77676746    -0.80000
O495        O  0.27004342  0.21715901  0.74837038    -1.90500
Cd496      Cd  0.24943759  0.23435551  0.78102269     1.59900
O497        O  0.34167179  0.23647213  0.71436930    -0.80000
O498        O  0.20343733  0.21710712  0.74834842    -0.78600
C499        C  0.27710591  0.23105110  0.64560295     0.83900
C500        C  0.26373614  0.14013693  0.74706540     0.83600
O501        O  0.19801602  0.17348275  0.71773972    -0.77600
C502        C  0.26039657  0.21249899  0.85446792     0.84400
O503        O  0.25955831  0.20371994  0.66097944    -0.77700
C504        C  0.35453816  0.23410379  0.74500316     0.84500
C505        C  0.32378954  0.29249819  0.78702611     0.84800
O506        O  0.33030498  0.28737025  0.75372132    -0.80100
O507        O  0.40313116  0.24257813  0.71668460    -0.77600
C508        C  0.01148231  0.30447747  0.72455242     0.83400
O509        O  0.46149076  0.18753904  0.66730856    -0.78700
O510        O  0.49024715  0.19739981  0.80064056    -0.80200
O511        O  0.43683999  0.21615500  0.83987488    -0.80000
O512        O  0.38973770  0.22164223  0.77484990    -0.78600
Zn513      Zn  0.44640879  0.24519889  0.70990926     1.55700
O514        O  0.48726218  0.25615282  0.83783643    -0.80000
Cd515      Cd  0.42000168  0.20526959  0.78594564     1.59700
Cd516      Cd  0.44594195  0.18333816  0.72250189     1.59600
O517        O  0.39310634  0.15653216  0.78178542    -0.80000
O518        O  0.45385949  0.22300530  0.74907984    -1.90500
Cd519      Cd  0.49305549  0.24344571  0.78159436     1.59900
O520        O  0.39789742  0.15167409  0.71981830    -0.80000
O521        O  0.02050005  0.28967870  0.74868699    -0.78600
C522        C  0.45306769  0.20317347  0.64568501     0.83900
C523        C  0.38436494  0.23329347  0.74520715     0.83600
O524        O  0.48291507  0.29085837  0.71090588    -0.77600
C525        C  0.46247848  0.23670710  0.85672465     0.84400
O526        O  0.44601840  0.22366277  0.65928117    -0.77700
C527        C  0.38332103  0.14059979  0.75094489     0.84500
C528        C  0.47225784  0.16734176  0.79075337     0.84800
O529        O  0.45733225  0.15931341  0.75927544    -0.80100
O530        O  0.37829028  0.19765353  0.52345054    -0.77600
C531        C  0.44835171  0.19685115  0.60454854     0.83400
O532        O  0.48582800  0.28675716  0.01583484    -0.78700
O533        O  0.48885895  0.17216976  0.49514007    -0.80200
O534        O  0.38784296  0.14963145  0.96593239    -0.80000
O535        O  0.39217934  0.22029455  0.96726902    -0.78600
Zn536      Zn  0.42339002  0.21475841  0.53821975     1.55700
O537        O  0.40706524  0.13612006  0.51688167    -0.80000
Cd538      Cd  0.41807181  0.19708487  0.96126191     1.59700
Cd539      Cd  0.48709855  0.24749489  0.98160144     1.59600
O540        O  0.43821896  0.20781065  0.91047366    -0.80000
O541        O  0.44905913  0.21003082  0.50182429    -1.90500
Cd542      Cd  0.45323807  0.17527156  0.52549373     1.59900
O543        O  0.48173353  0.25507818  0.92190057    -0.80000
O544        O  0.46310643  0.18593900  0.58460862    -0.78600
C545        C  0.46257966  0.28534573  0.53656332     0.83900
C546        C  0.37412715  0.21238417  0.49604962     0.83600
O547        O  0.42867524  0.20378344  0.58942072    -0.77600
C548        C  0.38519019  0.13016798  0.99182655     0.84400
O549        O  0.43818819  0.25894004  0.54436188    -0.77700
C550        C  0.46152459  0.23386151  0.89861660     0.84500
C551        C  0.01185352  0.19461179  0.97647998     0.84800
O552        O  0.01591871  0.22355784  0.97487815    -0.80100
O553        O  0.31438720  0.34076529  0.63447983    -0.77600
C554        C  0.21651406  0.30424711  0.66218306     0.83400
O555        O  0.30047522  0.42328390  0.58166582    -0.78700
O556        O  0.22643037  0.39131565  0.69208707    -0.80200
O557        O  0.31523616  0.38045262  0.75047581    -0.80000
O558        O  0.35257975  0.38630968  0.66249843    -0.78600
Zn559      Zn  0.27952246  0.35179349  0.62864560     1.55700
O560        O  0.26797383  0.37813856  0.75472874    -0.80000
Cd561      Cd  0.32407368  0.40229433  0.69683410     1.59700
Cd562      Cd  0.28144263  0.41626793  0.63548488     1.59600
O563        O  0.32140974  0.44514604  0.71646661    -0.80000
O564        O  0.28597765  0.38365387  0.66425335    -1.90500
Cd565      Cd  0.25208300  0.36915369  0.70029779     1.59900
O566        O  0.29417927  0.45391744  0.67073180    -0.80000
O567        O  0.22176249  0.32200793  0.69129109    -0.78600
C568        C  0.29346779  0.39846400  0.56172595     0.83900
C569        C  0.34382619  0.36026747  0.64230879     0.83600
O570        O  0.23557128  0.31273983  0.63403220    -0.77600
C571        C  0.29237539  0.37919081  0.77025740     0.84400
O572        O  0.28370126  0.37098072  0.57667837    -0.75900
C573        C  0.30597872  0.45915695  0.70411572     0.84500
C574        C  0.21793944  0.39811597  0.66088534     0.84800
O575        O  0.23371727  0.40235427  0.63041785    -0.80100
O576        O  0.23611685  0.40876898  0.88508714    -0.77600
C577        C  0.34477527  0.47072394  0.89439216     0.83400
O578        O  0.29907033  0.36183001  0.83131219    -0.78700
O579        O  0.32240695  0.36191831  0.96629855    -0.80200
O580        O  0.26820508  0.37619918  0.50481879    -0.80000
O581        O  0.22111232  0.38383444  0.94100697    -0.78600
Zn582      Zn  0.28041332  0.41407230  0.87965238     1.55700
O583        O  0.31601490  0.42041651  0.50084355    -0.80000
Cd584      Cd  0.25235793  0.36824554  0.95069201     1.59700
Cd585      Cd  0.28114468  0.35029394  0.88590696     1.59600
O586        O  0.22695691  0.32025441  0.94381328    -0.80000
O587        O  0.28654655  0.38802781  0.91468380    -1.90500
Cd588      Cd  0.32500062  0.40766682  0.94700946     1.59900
O589        O  0.23299687  0.31698376  0.88175191    -0.80000
O590        O  0.35365771  0.45329915  0.91404104    -0.78600
C591        C  0.29313405  0.38054897  0.81174917     0.83900
C592        C  0.21624914  0.39693175  0.91235884     0.83600
O593        O  0.31528732  0.46024733  0.88604006    -0.77600
C594        C  0.29282627  0.39920832  0.52039122     0.84400
O595        O  0.28450497  0.39915819  0.82716717    -0.77700
C596        C  0.21739106  0.30550236  0.91230475     0.84500
C597        C  0.30675199  0.33231909  0.95419531     0.84800
O598        O  0.29429780  0.32545095  0.92107087    -0.80100
O599        O  0.17875897  0.25596437  0.88501992    -0.77600
C600        C  0.13236500  0.14810698  0.89258429     0.83400
O601        O  0.06831348  0.19345744  0.83071795    -0.78700
O602        O  0.04519363  0.16943563  0.96289894    -0.80200
O603        O  0.11409959  0.22470041  0.50461951    -0.80000
O604        O  0.16876242  0.27167694  0.94077667    -0.78600
Zn605      Zn  0.13966428  0.21245205  0.87837553     1.55700
O606        O  0.10961267  0.17653856  0.49990660    -0.80000
Cd607      Cd  0.12189439  0.24050031  0.95040187     1.59700
Cd608      Cd  0.07635828  0.21220334  0.88479555     1.59600
O609        O  0.09837742  0.26519220  0.94289258    -0.80000
O610        O  0.10814853  0.20633613  0.91390977    -1.90500
Cd611      Cd  0.08903368  0.16781520  0.94516671     1.59900
O612        O  0.09134408  0.25997335  0.88034896    -0.80000
O613        O  0.10652835  0.13935990  0.91292104    -0.78600
C614        C  0.09313202  0.20062357  0.81098820     0.83900
C615        C  0.18683854  0.27593815  0.91245301     0.83600
O616        O  0.15044409  0.17722472  0.88289061    -0.77600
C617        C  0.11185884  0.19983668  0.51983914     0.84400
O618        O  0.12060449  0.20963650  0.82626579    -0.77700
C619        C  0.09373560  0.27485282  0.91124577     0.84500
C620        C  0.03314513  0.18715611  0.95222182     0.84800
O621        O  0.03971198  0.20085101  0.92017203    -0.80100
O622        O  0.03063266  0.17824806  0.63452614    -0.77600
C623        C  0.09594718  0.27733875  0.66156363     0.83400
O624        O  0.12808349  0.19206931  0.58117658    -0.78700
O625        O  0.17248585  0.26449960  0.69354765    -0.80200
O626        O  0.07020504  0.17906931  0.74982047    -0.80000
O627        O  0.03662684  0.14024992  0.66442653    -0.78600
Zn628      Zn  0.07705383  0.21269795  0.62866325     1.55700
O629        O  0.11592242  0.22555579  0.75451594    -0.80000
Cd630      Cd  0.08267198  0.16899648  0.69685697     1.59700
Cd631      Cd  0.13999141  0.21061578  0.63564317     1.59600
O632        O  0.12817378  0.17149856  0.71713965    -0.80000
O633        O  0.10282718  0.20650261  0.66409396    -1.90500
Cd634      Cd  0.12423431  0.24087483  0.70022818     1.59900
O635        O  0.16412919  0.19716013  0.67124605    -0.80000
O636        O  0.10991168  0.27295126  0.68983729    -0.78600
C637        C  0.11014820  0.19897703  0.56125679     0.83900
C638        C  0.01949387  0.14907155  0.64405259     0.83600
O639        O  0.08296318  0.25699083  0.63457807    -0.77600
C640        C  0.09225203  0.20163370  0.76972202     0.84400
O641        O  0.09203867  0.20836529  0.57636470    -0.77700
C642        C  0.15758788  0.18614693  0.70478937     0.84500
C643        C  0.18669382  0.27384554  0.66195532     0.84800
O644        O  0.17425874  0.25829189  0.63129371    -0.80100
O645        O  0.15266881  0.46156326  0.63323357    -0.77600
C646        C  0.18820364  0.39877474  0.66139074     0.83400
O647        O  0.06936198  0.36320650  0.58072003    -0.78700
O648        O  0.10236845  0.32264073  0.69241713    -0.80200
O649        O  0.11366836  0.42263503  0.75052785    -0.80000
O650        O  0.10906352  0.45577703  0.66415024    -0.78600
Zn651      Zn  0.14122366  0.41541649  0.62776859     1.55700
O652        O  0.11575555  0.37769963  0.75418786    -0.80000
Cd653      Cd  0.09175978  0.40988054  0.69666034     1.59700
Cd654      Cd  0.07726903  0.35253101  0.63484373     1.59600
O655        O  0.04967215  0.36334459  0.71638313    -0.80000
O656        O  0.10979476  0.39029079  0.66357283    -1.90500
Cd657      Cd  0.12414644  0.37056764  0.69988747     1.59900
O658        O  0.03953055  0.32808711  0.66922628    -0.80000
O659        O  0.17089044  0.38685561  0.69064280    -0.78600
C660        C  0.09386490  0.38098028  0.56070007     0.83900
C661        C  0.13463592  0.47268303  0.64332155     0.83600
O662        O  0.17982924  0.40978686  0.63342952    -0.77600
C663        C  0.11454950  0.40076155  0.76999368     0.84400
O664        O  0.12148129  0.39951438  0.57565343    -0.77700
C665        C  0.03515589  0.33408199  0.70314223     0.84500
C666        C  0.09598125  0.30742502  0.66112974     0.84800
O667        O  0.09138965  0.31874932  0.63061655    -0.80100
O668        O  0.08306372  0.31324244  0.88323079    -0.77600
C669        C  0.01916959  0.35765465  0.89198983     0.83400
O670        O  0.12977348  0.42374963  0.83203487    -0.78700
O671        O  0.12680352  0.44322333  0.96703544    -0.80200
O672        O  0.11625606  0.37874740  0.50382647    -0.80000
O673        O  0.10533376  0.32209359  0.94131123    -0.78600
Zn674      Zn  0.07740790  0.35172842  0.87702994     1.55700
O675        O  0.06976566  0.37806204  0.49966492    -0.80000
Cd676      Cd  0.12260365  0.36911998  0.94982611     1.59700
Cd677      Cd  0.14050194  0.41543076  0.88608256     1.59600
O678        O  0.17066945  0.39016227  0.94268954    -0.80000
O679        O  0.10241686  0.38297725  0.91336193    -1.90500
Cd680      Cd  0.08172321  0.40007935  0.94632226     1.59900
O681        O  0.17463721  0.40170475  0.88129965    -0.80000
O682        O  0.03557726  0.38290090  0.91381198    -0.78600
C683        C  0.11218400  0.39931102  0.81129853     0.83900
C684        C  0.09354423  0.30475812  0.91170107     0.83600
O685        O  0.03103832  0.34042207  0.88122516    -0.77600
C686        C  0.09250119  0.37870841  0.51937405     0.84400
O687        O  0.09372529  0.37165497  0.82549289    -0.77700
C688        C  0.18602504  0.39690243  0.91171736     0.84500
C689        C  0.15662959  0.45685398  0.95615995     0.84800
O690        O  0.16411867  0.45157069  0.92344611    -0.80100
O691        O  0.14763578  0.00632087  0.80178923    -0.77600
C692        C  0.04952267  0.46969738  0.82833599     0.83400
O693        O  0.13109278  0.08852283  0.74876895    -0.78700
O694        O  0.05862897  0.05669911  0.86026290    -0.80200
O695        O  0.14853500  0.04744038  0.91787135    -0.80000
O696        O  0.18557456  0.05134840  0.83088990    -0.78600
Zn697      Zn  0.11275997  0.01751027  0.79543072     1.55700
O698        O  0.10037427  0.04322566  0.92172637    -0.80000
Cd699      Cd  0.15685849  0.06815129  0.86380906     1.59700
Cd700      Cd  0.11244191  0.08061943  0.80272852     1.59600
O701        O  0.15395115  0.11107994  0.88275696    -0.80000
O702        O  0.11844912  0.04891115  0.83144074    -1.90500
Cd703      Cd  0.08433937  0.03432139  0.86747045     1.59900
O704        O  0.12473602  0.11796359  0.83785770    -0.80000
O705        O  0.05417545  0.48726367  0.85751549    -0.78600
C706        C  0.12516503  0.06418104  0.72850864     0.83900
C707        C  0.17695898  0.02526707  0.81078936     0.83600
O708        O  0.06896859  0.47841662  0.80056657    -0.77600
C709        C  0.12533621  0.04565403  0.93738311     0.84400
O710        O  0.11665831  0.03682932  0.74320930    -0.77700
C711        C  0.13751995  0.12415750  0.87070303     0.84500
C712        C  0.04959056  0.06301719  0.82914037     0.84800
O713        O  0.06458406  0.06620126  0.79829138    -0.80100
O714        O  0.06796901  0.07549943  0.55206404    -0.77600
C715        C  0.17601595  0.13826137  0.56031208     0.83400
O716        O  0.13445794  0.53125464  0.99887718    -0.78700
O717        O  0.15502697  0.03104102  0.63347594    -0.80200
O718        O  0.10057037  0.04180970  0.67108767    -0.80000
O719        O  0.05261773  0.04896272  0.60708145    -0.78600
Zn720      Zn  0.11205785  0.08099506  0.54566656     1.55700
O721        O  0.14680693  0.08785835  0.66788587    -0.80000
Cd722      Cd  0.08477242  0.03432510  0.61661052     1.59700
Cd723      Cd  0.11485070  0.51912869  0.55217101     1.59600
O724        O  0.06161638  0.48637012  0.60808843    -0.80000
O725        O  0.11891592  0.05602956  0.58117277    -1.90500
Cd726      Cd  0.15682937  0.07617120  0.61408947     1.59900
O727        O  0.06727092  0.48496481  0.54574088    -0.80000
O728        O  0.18505572  0.12157748  0.58111328    -0.78600
C729        C  0.12632816  0.04798437  0.97870203     0.83900
C730        C  0.04805793  0.06303408  0.57918350     0.83600
O731        O  0.14661639  0.12721335  0.55102175    -0.77600
C732        C  0.12442845  0.06539547  0.68712019     0.84400
O733        O  0.11586468  0.06533609  0.99347853    -0.77700
C734        C  0.05216707  0.47222433  0.57618769     0.84500
C735        C  0.13948542  0.50152491  0.62122867     0.84800
O736        O  0.12745925  0.49471141  0.58796117    -0.80100
O737        O  0.36454337  0.34542452  0.79801584    -0.77600
C738        C  0.43047053  0.44463634  0.82551481     0.83400
O739        O  0.46135644  0.35826634  0.74552335    -0.78700
O740        O  0.00570633  0.42922264  0.85899331    -0.80200
O741        O  0.40248747  0.34692336  0.91488918    -0.80000
O742        O  0.36946824  0.30766405  0.83020772    -0.78600
Zn743      Zn  0.41086367  0.37985212  0.79254863     1.55700
O744        O  0.44808490  0.39346775  0.91885194    -0.80000
Cd745      Cd  0.41532073  0.33624114  0.86237052     1.59700
Cd746      Cd  0.97277886  0.37644788  0.80019181     1.59600
O747        O  0.46083427  0.33895007  0.88284672    -0.80000
O748        O  0.43578802  0.37300214  0.82850174    -1.90500
Cd749      Cd  0.45756585  0.40740987  0.86442501     1.59900
O750        O  0.99609117  0.36189567  0.83554273    -0.80000
O751        O  0.44495290  0.44032934  0.85319117    -0.78600
C752        C  0.44416143  0.36595565  0.72537461     0.83900
C753        C  0.35287155  0.31648846  0.80890119     0.83600
O754        O  0.41678472  0.42416801  0.79878650    -0.77600
C755        C  0.42429571  0.36999186  0.93441929     0.84400
O756        O  0.42632985  0.37576793  0.74031978    -0.77700
C757        C  0.98995418  0.35228443  0.86969640     0.84500
C758        C  0.01992000  0.43916816  0.82754318     0.84800
O759        O  0.00753578  0.42409894  0.79658788    -0.80100
O760        O  0.51336993  0.42275462  0.54808173    -0.77600
C761        C  0.46049375  0.31340237  0.55201190     0.83400
O762        O  0.40108003  0.36253043  0.99606992    -0.78700
O763        O  0.37996636  0.33856648  0.62933132    -0.80200
O764        O  0.44925480  0.39245378  0.66907978    -0.80000
O765        O  0.00423832  0.43790836  0.60483039    -0.78600
Zn766      Zn  0.47296505  0.37969512  0.54088599     1.55700
O767        O  0.44418924  0.34419178  0.66363040    -0.80000
Cd768      Cd  0.45750375  0.40835760  0.61501738     1.59700
Cd769      Cd  0.40999874  0.38097284  0.55064289     1.59600
O770        O  0.43577722  0.43471621  0.60905423    -0.80000
O771        O  0.44230860  0.37473767  0.57790299    -1.90500
Cd772      Cd  0.42276114  0.33683917  0.60950055     1.59900
O773        O  0.42541480  0.42873713  0.54705141    -0.80000
O774        O  0.43685531  0.30781170  0.57490906    -0.78600
C775        C  0.42557094  0.36959860  0.97568238     0.83900
C776        C  0.02189145  0.44237505  0.57605246     0.83600
O777        O  0.48023765  0.34162268  0.54053113    -0.77600
C778        C  0.44650869  0.36730698  0.68398498     0.84400
O779        O  0.45325666  0.37856826  0.99019620    -0.77700
C780        C  0.42934381  0.44386617  0.57815796     0.84500
C781        C  0.36749544  0.35589981  0.61915360     0.84800
O782        O  0.37385236  0.36986760  0.58726343    -0.80100
O783        O  0.48668629  0.12857127  0.80508915    -0.77600
C784        C  0.02025900  0.06446927  0.83009699     0.83400
O785        O  0.40203333  0.53011984  0.74875226    -0.78700
O786        O  0.43586459  0.48885973  0.85785120    -0.80200
O787        O  0.44599084  0.08818196  0.91767398    -0.80000
O788        O  0.44108630  0.12118771  0.83220078    -0.78600
Zn789      Zn  0.47392470  0.08211140  0.79672765     1.55700
O790        O  0.44647346  0.04243093  0.92170062    -0.80000
Cd791      Cd  0.42372404  0.07540070  0.86421026     1.59700
Cd792      Cd  0.41017674  0.51855033  0.80245655     1.59600
O793        O  0.38129976  0.02927757  0.88360672    -0.80000
O794        O  0.44214642  0.05625022  0.83136275    -1.90500
Cd795      Cd  0.45634164  0.03644688  0.86755936     1.59900
O796        O  0.37408647  0.49280096  0.83905761    -0.80000
O797        O  0.00352824  0.05384437  0.86000201    -0.78600
C798        C  0.42650917  0.04879680  0.72907590     0.83900
C799        C  0.46764697  0.13892889  0.81336954     0.83600
O800        O  0.51158987  0.07485946  0.80176787    -0.77600
C801        C  0.44614039  0.06603816  0.93731122     0.84400
O802        O  0.45396465  0.06753159  0.74435134    -0.77700
C803        C  0.36840131  0.49961594  0.87199475     0.84500
C804        C  0.43024755  0.47451170  0.82598613     0.84800
O805        O  0.42584499  0.48636466  0.79586443    -0.80100
O806        O  0.41730109  0.48146404  0.55140792    -0.77600
C807        C  0.35223869  0.02381081  0.56056399     0.83400
O808        O  0.46197317  0.09001886  0.99872662    -0.78700
O809        O  0.46090830  0.11126771  0.63350401    -0.80200
O810        O  0.44917620  0.04663076  0.67230458    -0.80000
O811        O  0.43990517  0.49047563  0.60928737    -0.78600
Zn812      Zn  0.41074430  0.01903491  0.54538186     1.55700
O813        O  0.40319707  0.04694175  0.66776058    -0.80000
Cd814      Cd  0.45600025  0.03732235  0.61817762     1.59700
Cd815      Cd  0.97310138  0.08272895  0.55298733     1.59600
O816        O  0.00401174  0.05882609  0.61079065    -0.80000
O817        O  0.43556229  0.05068571  0.58133434    -1.90500
Cd818      Cd  0.41511184  0.06813024  0.61389615     1.59900
O819        O  0.00653999  0.06813897  0.54881918    -0.80000
O820        O  0.36857079  0.04955204  0.58167762    -0.78600
C821        C  0.44427543  0.06523125  0.97859394     0.83900
C822        C  0.42836829  0.47329224  0.57950295     0.83600
O823        O  0.36439913  0.00679490  0.55009842    -0.77600
C824        C  0.42553665  0.04699196  0.68766765     0.84400
O825        O  0.42608103  0.03785153  0.99344187    -0.77700
C826        C  0.01836792  0.06392148  0.57924936     0.84500
C827        C  0.99048315  0.12523471  0.62160468     0.84800
O828        O  0.99732842  0.11999321  0.58852482    -0.80100
O829        O  0.19611761  0.50983824  0.46979586    -0.77600
C830        C  0.26154170  0.60884220  0.49653369     0.83400
O831        O  0.29068213  0.52104056  0.41610485    -0.78700
O832        O  0.34122005  0.59405665  0.02727681    -0.80200
O833        O  0.23688849  0.51298541  0.08580983    -0.80000
O834        O  0.20224266  0.97213223  0.00009761    -0.78600
Zn835      Zn  0.24236954  0.54415895  0.46421363     1.55700
O836        O  0.28342544  0.55895422  0.08924903    -0.80000
Cd837      Cd  0.24810965  0.50140130  0.03291704     1.59700
Cd838      Cd  0.30356120  0.53986654  0.47006837     1.59600
O839        O  0.29376447  0.50448288  0.05277147    -0.80000
O840        O  0.26829990  0.53836421  0.49971232    -1.90500
Cd841      Cd  0.29240846  0.57370389  0.03450498     1.59900
O842        O  0.32766082  0.52543975  0.50403998    -0.80000
O843        O  0.27827017  0.60633190  0.02318762    -0.78600
C844        C  0.27428685  0.52991060  0.39633304     0.83900
C845        C  0.18516637  0.98071383  0.47923282     0.83600
O846        O  0.24729598  0.58755409  0.47084373    -0.77600
C847        C  0.25955621  0.53560756  0.10511345     0.84400
O848        O  0.25728265  0.54051920  0.41166258    -0.77700
C849        C  0.32249589  0.51732288  0.03872674     0.84500
C850        C  0.35406654  0.60157868  0.99474921     0.84800
O851        O  0.33865760  0.58677778  0.46485235    -0.80100
O852        O  0.34530131  0.59137296  0.22283311    -0.77600
C853        C  0.30065843  0.98281960  0.22659091     0.83400
O854        O  0.23601901  0.52773163  0.16644081    -0.78700
O855        O  0.21355667  0.50348534  0.29897137    -0.80200
O856        O  0.27743784  0.55587739  0.34021959    -0.80000
O857        O  0.33685965  0.60359328  0.28155031    -0.78600
Zn858      Zn  0.30745867  0.54723070  0.21408844     1.55700
O859        O  0.27757713  0.50997539  0.33471935    -0.80000
Cd860      Cd  0.28925135  0.57343240  0.28712203     1.59700
Cd861      Cd  0.24394577  0.54626591  0.22071907     1.59600
O862        O  0.26905168  0.60099605  0.27856944    -0.80000
O863        O  0.27570599  0.54018385  0.24933572    -1.90500
Cd864      Cd  0.25702586  0.50157446  0.28016749     1.59900
O865        O  0.25915360  0.59407193  0.21648152    -0.80000
O866        O  0.27477643  0.97370238  0.24698756    -0.78600
C867        C  0.26083217  0.53523197  0.14651204     0.83900
C868        C  0.35385134  0.60997707  0.25177950     0.83600
O869        O  0.31879893  0.51216963  0.21769694    -0.77600
C870        C  0.27677085  0.53161190  0.35505003     0.84400
O871        O  0.28846860  0.54467857  0.16167596    -0.77700
C872        C  0.26346142  0.61000564  0.24702226     0.84500
C873        C  0.20091431  0.52067178  0.28832944     0.84800
O874        O  0.20735622  0.53452583  0.25637928    -0.80100
O875        O  0.32018126  0.79242075  0.46965868    -0.77600
C876        C  0.34776553  0.71883833  0.49829126     0.83400
O877        O  0.23571904  0.69508937  0.41500779    -0.78700
O878        O  0.25940217  0.64985704  0.02846269    -0.80200
O879        O  0.27863665  0.75352182  0.08420141    -0.80000
O880        O  0.27505418  0.78662210  0.99657244    -0.78600
Zn881      Zn  0.30732623  0.74516807  0.46465551     1.55700
O882        O  0.27786709  0.70712935  0.08930763    -0.80000
Cd883      Cd  0.25695352  0.74135035  0.03015273     1.59700
Cd884      Cd  0.24215942  0.68330370  0.46934734     1.59600
O885        O  0.21365548  0.69632899  0.04928623    -0.80000
O886        O  0.27437481  0.72052885  0.49864104    -1.90500
Cd887      Cd  0.28480988  0.69783744  0.03569836     1.59900
O888        O  0.20468947  0.65933667  0.50457641    -0.80000
O889        O  0.32981986  0.70764680  0.02707302    -0.78600
C890        C  0.26082506  0.71315145  0.39594611     0.83900
C891        C  0.30142831  0.80345322  0.47704204     0.83600
O892        O  0.34272941  0.73404333  0.47183357    -0.77600
C893        C  0.27839591  0.73134514  0.10429857     0.84400
O894        O  0.28820638  0.73077144  0.41194278    -0.77700
C895        C  0.19965209  0.66667318  0.03756874     0.84500
C896        C  0.25881537  0.63738369  0.99649017     0.84800
O897        O  0.25738872  0.65034586  0.46561918    -0.80100
O898        O  0.25053606  0.64703604  0.21999685    -0.77600
C899        C  0.18663952  0.69139820  0.22736713     0.83400
O900        O  0.29466049  0.75616765  0.16522812    -0.78700
O901        O  0.29453831  0.77796898  0.29981376    -0.80200
O902        O  0.28448749  0.71307365  0.33902470    -0.80000
O903        O  0.27800299  0.65891572  0.27500600    -0.78600
Zn904      Zn  0.24447367  0.68507301  0.21313438     1.55700
O905        O  0.23804227  0.71259523  0.33467813    -0.80000
Cd906      Cd  0.29238031  0.70543041  0.28457700     1.59700
Cd907      Cd  0.30687053  0.74944870  0.21904513     1.59600
O908        O  0.34062139  0.72994267  0.27677024    -0.80000
O909        O  0.27004368  0.71715837  0.24837048    -1.90500
Cd910      Cd  0.24943711  0.73435368  0.28102364     1.59900
O911        O  0.34167322  0.73647318  0.21437265    -0.80000
O912        O  0.20343664  0.71710577  0.24834962    -0.78600
C913        C  0.27710615  0.73104973  0.14560222     0.83900
C914        C  0.26373397  0.64013539  0.24706579     0.83600
O915        O  0.19801614  0.67348274  0.21773862    -0.77600
C916        C  0.26039510  0.71249588  0.35446873     0.84400
O917        O  0.25955843  0.70371927  0.16097894    -0.77700
C918        C  0.35453815  0.73410276  0.24500578     0.84500
C919        C  0.32378943  0.79249688  0.28702732     0.84800
O920        O  0.33030467  0.78737120  0.25372131    -0.80100
O921        O  0.40313167  0.74257901  0.21668789    -0.77600
C922        C  0.01148287  0.80447853  0.22455298     0.83400
O923        O  0.46148849  0.68753947  0.16730831    -0.78700
O924        O  0.49024733  0.69739909  0.30063855    -0.80200
O925        O  0.43684195  0.71615472  0.33987624    -0.80000
O926        O  0.38973803  0.72164122  0.27485242    -0.78600
Zn927      Zn  0.44640888  0.74519999  0.20991066     1.55700
O928        O  0.48726416  0.75615246  0.33783672    -0.80000
Cd929      Cd  0.42000253  0.70526910  0.28594735     1.59700
Cd930      Cd  0.44594035  0.68333843  0.22250183     1.59600
O931        O  0.39310722  0.65653150  0.28178726    -0.80000
O932        O  0.45385960  0.72300577  0.24908058    -1.90500
Cd933      Cd  0.49305622  0.74344576  0.28159388     1.59900
O934        O  0.39789552  0.65167551  0.21981919    -0.80000
O935        O  0.02050078  0.78967952  0.24868725    -0.78600
C936        C  0.45306643  0.70317423  0.14568531     0.83900
C937        C  0.38436514  0.73329290  0.24521099     0.83600
O938        O  0.48291560  0.79085959  0.21090690    -0.77600
C939        C  0.46248070  0.73670654  0.35672551     0.84400
O940        O  0.44601749  0.72366435  0.15928183    -0.77700
C941        C  0.38332040  0.64060011  0.25094592     0.84500
C942        C  0.47225719  0.66734102  0.29075170     0.84800
O943        O  0.45733049  0.65931276  0.25927448    -0.80100
O944        O  0.37828794  0.69765539  0.02344333    -0.77600
C945        C  0.44835053  0.69685349  0.10454853     0.83400
O946        O  0.48582962  0.78675648  0.51583599    -0.78700
O947        O  0.48885967  0.67217189  0.99514161    -0.80200
O948        O  0.38784413  0.64963069  0.46593238    -0.80000
O949        O  0.39217766  0.72029209  0.46727514    -0.78600
Zn950      Zn  0.42338892  0.71475984  0.03821840     1.55700
O951        O  0.40706450  0.63612030  0.01688099    -0.80000
Cd952      Cd  0.41807339  0.69708416  0.46126191     1.59700
Cd953      Cd  0.48710016  0.74749404  0.48160231     1.59600
O954        O  0.43822199  0.70780937  0.41047435    -0.80000
O955        O  0.44905801  0.71003133  0.00182370    -1.90500
Cd956      Cd  0.45323712  0.67527218  0.02549406     1.59900
O957        O  0.48173541  0.75507783  0.42190151    -0.80000
O958        O  0.46310392  0.68593861  0.08460927    -0.78600
C959        C  0.46257802  0.78534717  0.03656046     0.83900
C960        C  0.37411437  0.71236495  0.99609027     0.83600
O961        O  0.42867731  0.70378868  0.08941995    -0.77600
C962        C  0.38519109  0.63016750  0.49182688     0.84400
O963        O  0.43818496  0.75894109  0.04435774    -0.77700
C964        C  0.46152731  0.73386084  0.39861732     0.84500
C965        C  0.01185317  0.69460949  0.47647862     0.84800
O966        O  0.01591943  0.72355591  0.47487777    -0.80100
O967        O  0.31438794  0.84076585  0.13448148    -0.77600
C968        C  0.21651274  0.80424701  0.16218336     0.83400
O969        O  0.30047517  0.92328322  0.08166616    -0.78700
O970        O  0.22643174  0.89131866  0.19208769    -0.80200
O971        O  0.31523291  0.88044942  0.25047728    -0.80000
O972        O  0.35257928  0.88631113  0.16249958    -0.78600
Zn973      Zn  0.27952245  0.85179288  0.12864636     1.55700
O974        O  0.26797111  0.87813646  0.25472999    -0.80000
Cd975      Cd  0.32407156  0.90229296  0.19683642     1.59700
Cd976      Cd  0.28144195  0.91626701  0.13548515     1.59600
O977        O  0.32140714  0.94514455  0.21646851    -0.80000
O978        O  0.28597663  0.88365300  0.16425424    -1.90500
Cd979      Cd  0.25208170  0.86915409  0.20029825     1.59900
O980        O  0.29417822  0.95391658  0.17073225    -0.80000
O981        O  0.22175973  0.82200911  0.19128966    -0.78600
C982        C  0.29346810  0.89846335  0.06172577     0.83900
C983        C  0.34382679  0.86026929  0.14230963     0.83600
O984        O  0.23557155  0.81273844  0.13403384    -0.77600
C985        C  0.29237258  0.87918757  0.27025878     0.84400
O986        O  0.28370160  0.87098019  0.07667805    -0.75900
C987        C  0.30597705  0.95915598  0.20411657     0.84500
C988        C  0.21793957  0.89811624  0.16088491     0.84800
O989        O  0.23371659  0.90235252  0.13041739    -0.80100
O990        O  0.23611703  0.90876817  0.38509091    -0.77600
C991        C  0.34477640  0.97072286  0.39439194     0.83400
O992        O  0.29907049  0.86182901  0.33131368    -0.78700
O993        O  0.32240677  0.86191796  0.46630090    -0.80200
O994        O  0.26820484  0.87620047  0.00481798    -0.80000
O995        O  0.22111055  0.88382871  0.44100771    -0.78600
Zn996      Zn  0.28041283  0.91407054  0.37965363     1.55700
O997        O  0.31601605  0.92041605  0.00084315    -0.80000
Cd998      Cd  0.25235793  0.86824258  0.45069312     1.59700
Cd999      Cd  0.28114535  0.85029331  0.38590851     1.59600
O1000       O  0.22695806  0.82025135  0.44381450    -0.80000
O1001       O  0.28654689  0.88802688  0.41468529    -1.90500
Cd1002     Cd  0.32500060  0.90766657  0.44701140     1.59900
O1003       O  0.23299715  0.81698378  0.38175253    -0.80000
O1004       O  0.35365834  0.95329876  0.41404299    -0.78600
C1005       C  0.29313111  0.88054616  0.31175041     0.83900
C1006       C  0.21624833  0.89692834  0.41236047     0.83600
O1007       O  0.31528874  0.96024545  0.38603716    -0.77600
C1008       C  0.29282702  0.89920867  0.02039079     0.84400
O1009       O  0.28450091  0.89915396  0.32716843    -0.77700
C1010       C  0.21739088  0.80550154  0.41230562     0.84500
C1011       C  0.30675267  0.83231894  0.45419695     0.84800
O1012       O  0.29429901  0.82545087  0.42107221    -0.80100
O1013       O  0.17875907  0.75596366  0.38502014    -0.77600
C1014       C  0.13236561  0.64810661  0.39258400     0.83400
O1015       O  0.06831265  0.69345307  0.33071765    -0.78700
O1016       O  0.04519344  0.66943367  0.46289804    -0.80200
O1017       O  0.11410054  0.72470157  0.00462078    -0.80000
O1018       O  0.16875938  0.77167860  0.44077336    -0.78600
Zn1019     Zn  0.13966427  0.71245136  0.37837522     1.55700
O1020       O  0.10961332  0.67653968  0.99990769    -0.80000
Cd1021     Cd  0.12189178  0.74049937  0.45040011     1.59700
Cd1022     Cd  0.07635647  0.71219977  0.38479423     1.59600
O1023       O  0.09837014  0.76518680  0.44289115    -0.80000
O1024       O  0.10814795  0.70633485  0.41390905    -1.90500
Cd1025     Cd  0.08903346  0.66781377  0.44516574     1.59900
O1026       O  0.09134038  0.75996959  0.38034714    -0.80000
O1027       O  0.10652878  0.63935920  0.41292045    -0.78600
C1028       C  0.09313161  0.70062096  0.31098796     0.83900
C1029       C  0.18683734  0.77593829  0.41245122     0.83600
O1030       O  0.15044462  0.67722435  0.38289051    -0.77600
C1031       C  0.11185970  0.69983783  0.01984030     0.84400
O1032       O  0.12060448  0.70963554  0.32626555    -0.77700
C1033       C  0.09373008  0.77484827  0.41124435     0.84500
C1034       C  0.03314387  0.68715285  0.45222017     0.84800
O1035       O  0.03970913  0.70084603  0.42016924    -0.80100
O1036       O  0.03063292  0.67824735  0.13452236    -0.77600
C1037       C  0.09594457  0.77733826  0.16156556     0.83400
O1038       O  0.12808214  0.69206794  0.08117777    -0.78700
O1039       O  0.17248379  0.76450064  0.19354807    -0.80200
O1040       O  0.07020384  0.67906794  0.24982032    -0.80000
O1041       O  0.03662580  0.64024959  0.16442581    -0.78600
Zn1042     Zn  0.07705395  0.71269880  0.12866331     1.55700
O1043       O  0.11592175  0.72555389  0.25451626    -0.80000
Cd1044     Cd  0.08267099  0.66899581  0.19685686     1.59700
Cd1045     Cd  0.13999042  0.71061455  0.13564429     1.59600
O1046       O  0.12817308  0.67149836  0.21714044    -0.80000
O1047       O  0.10282631  0.70650249  0.16409467    -1.90500
Cd1048     Cd  0.12423241  0.74087444  0.20022922     1.59900
O1049       O  0.16412815  0.69715833  0.17124624    -0.80000
O1050       O  0.10990821  0.77295017  0.18984052    -0.78600
C1051       C  0.11014871  0.69897796  0.06125777     0.83900
C1052       C  0.01949344  0.64907102  0.14405028     0.83600
O1053       O  0.08296227  0.75699130  0.13457955    -0.77600
C1054       C  0.09225137  0.70163165  0.26972211     0.84400
O1055       O  0.09204046  0.70836787  0.07636550    -0.77700
C1056       C  0.15758710  0.68614602  0.20478989     0.84500
C1057       C  0.18669258  0.77384524  0.16195581     0.84800
O1058       O  0.17425843  0.75829041  0.13129477    -0.80100
O1059       O  0.15266905  0.96156383  0.13323195    -0.77600
C1060       C  0.18820332  0.89877393  0.16139008     0.83400
O1061       O  0.06936286  0.86320723  0.08072050    -0.78700
O1062       O  0.10236533  0.82264017  0.19241962    -0.80200
O1063       O  0.11367070  0.92263681  0.25052927    -0.80000
O1064       O  0.10906659  0.95578031  0.16415298    -0.78600
Zn1065     Zn  0.14122425  0.91541706  0.12776863     1.55700
O1066       O  0.11575795  0.87770150  0.25418861    -0.80000
Cd1067     Cd  0.09176169  0.90988257  0.19666206     1.59700
Cd1068     Cd  0.07726932  0.85253250  0.13484495     1.59600
O1069       O  0.04967421  0.86334584  0.21638525    -0.80000
O1070       O  0.10979582  0.89029231  0.16357374    -1.90500
Cd1071     Cd  0.12414627  0.87056767  0.19988808     1.59900
O1072       O  0.03952988  0.82808933  0.16922648    -0.80000
O1073       O  0.17088932  0.88685294  0.19064100    -0.78600
C1074       C  0.09386581  0.88098034  0.06070036     0.83900
C1075       C  0.13463812  0.97268533  0.14332249     0.83600
O1076       O  0.17982986  0.90978786  0.13342972    -0.77600
C1077       C  0.11455187  0.90076296  0.26999473     0.84400
O1078       O  0.12148232  0.89951423  0.07565368    -0.77700
C1079       C  0.03515656  0.83408362  0.20314340     0.84500
C1080       C  0.09597919  0.80742492  0.16113279     0.84800
O1081       O  0.09138888  0.81874994  0.13061863    -0.80100
O1082       O  0.08306314  0.81324090  0.38322791    -0.77600
C1083       C  0.01917092  0.85765466  0.39198855     0.83400
O1084       O  0.12977607  0.92375011  0.33203637    -0.78700
O1085       O  0.12680485  0.94322364  0.46703499    -0.80200
O1086       O  0.11625820  0.87875060  0.00382626    -0.80000
O1087       O  0.10532616  0.82208773  0.44131186    -0.78600
Zn1088     Zn  0.07740849  0.85172797  0.37702920     1.55700
O1089       O  0.06976539  0.87806021  0.99966538    -0.80000
Cd1090     Cd  0.12260057  0.86911506  0.44982665     1.59700
Cd1091     Cd  0.14050319  0.91542981  0.38608410     1.59600
O1092       O  0.17066602  0.89015359  0.44268988    -0.80000
O1093       O  0.10241735  0.88297591  0.41336219    -1.90500
Cd1094     Cd  0.08172444  0.90007988  0.44632121     1.59900
O1095       O  0.17463798  0.90170360  0.38130174    -0.80000
O1096       O  0.03557903  0.88290137  0.41380993    -0.78600
C1097       C  0.11218635  0.89931235  0.31129958     0.83900
C1098       C  0.09353939  0.80475406  0.41169957     0.83600
O1099       O  0.03103902  0.84042141  0.38122464    -0.77600
C1100       C  0.09250218  0.87870877  0.01937430     0.84400
O1101       O  0.09372651  0.87165594  0.32549325    -0.77700
C1102       C  0.18602360  0.89689762  0.41171964     0.84500
C1103       C  0.15663120  0.95685313  0.45616096     0.84800
O1104       O  0.16412072  0.95156921  0.42344780    -0.80100
O1105       O  0.14763591  0.50632042  0.30179104    -0.77600
C1106       C  0.04952167  0.96969803  0.32833526     0.83400
O1107       O  0.13109380  0.58852304  0.24876996    -0.78700
O1108       O  0.05863247  0.55670288  0.36026345    -0.80200
O1109       O  0.14853546  0.54744032  0.41787276    -0.80000
O1110       O  0.18557480  0.55134810  0.33089156    -0.78600
Zn1111     Zn  0.11276021  0.51750985  0.29543142     1.55700
O1112       O  0.10037359  0.54322327  0.42172702    -0.80000
Cd1113     Cd  0.15685907  0.56815112  0.36381035     1.59700
Cd1114     Cd  0.11244250  0.58061861  0.30272902     1.59600
O1115       O  0.15395254  0.61108032  0.38275698    -0.80000
O1116       O  0.11844979  0.54891059  0.33144181    -1.90500
Cd1117     Cd  0.08433966  0.53432182  0.36747061     1.59900
O1118       O  0.12473589  0.61796232  0.33785828    -0.80000
O1119       O  0.05417364  0.98726525  0.35751442    -0.78600
C1120       C  0.12516520  0.56418128  0.22850926     0.83900
C1121       C  0.17695911  0.52526670  0.31079110     0.83600
O1122       O  0.06896835  0.97841623  0.30056756    -0.77600
C1123       C  0.12533585  0.54565259  0.43738405     0.84400
O1124       O  0.11665845  0.53682935  0.24320967    -0.77700
C1125       C  0.13752071  0.62415714  0.37070311     0.84500
C1126       C  0.04959294  0.56301903  0.32913952     0.84800
O1127       O  0.06458475  0.56619994  0.29829091    -0.80100
O1128       O  0.06796765  0.57549836  0.05206437    -0.77600
C1129       C  0.17601438  0.63826256  0.06031090     0.83400
O1130       O  0.13445517  0.03125146  0.49887822    -0.78700
O1131       O  0.15502481  0.53104314  0.13347985    -0.80200
O1132       O  0.10057111  0.54180939  0.17108807    -0.80000
O1133       O  0.05261680  0.54896143  0.10708168    -0.78600
Zn1134     Zn  0.11205693  0.58099506  0.04566619     1.55700
O1135       O  0.14680482  0.58786079  0.16788648    -0.80000
Cd1136     Cd  0.08477291  0.53432504  0.11661068     1.59700
Cd1137     Cd  0.11485507  0.01913040  0.05217085     1.59600
O1138       O  0.06161903  0.98636991  0.10808926    -0.80000
O1139       O  0.11891632  0.55603019  0.08117255    -1.90500
Cd1140     Cd  0.15682848  0.57617355  0.11409093     1.59900
O1141       O  0.06727596  0.98496275  0.04574234    -0.80000
O1142       O  0.18505433  0.62157947  0.08111339    -0.78600
C1143       C  0.12632751  0.54798283  0.47870297     0.83900
C1144       C  0.04805693  0.56303324  0.07918284     0.83600
O1145       O  0.14661477  0.62721381  0.05102006    -0.77600
C1146       C  0.12442800  0.56539622  0.18712084     0.84400
O1147       O  0.11586533  0.56533577  0.49347907    -0.77700
C1148       C  0.05217133  0.97222278  0.07618838     0.84500
C1149       C  0.13948856  0.00152789  0.12122977     0.84800
O1150       O  0.12746828  0.99471550  0.08795926    -0.80100
O1151       O  0.36454190  0.84542340  0.29802116    -0.77600
C1152       C  0.43047173  0.94463614  0.32551917     0.83400
O1153       O  0.46135499  0.85826660  0.24552435    -0.78700
O1154       O  0.00570612  0.92922282  0.35899400    -0.80200
O1155       O  0.40248846  0.84691894  0.41489050    -0.80000
O1156       O  0.36946915  0.80766176  0.33020714    -0.78600
Zn1157     Zn  0.41086228  0.87985091  0.29255195     1.55700
O1158       O  0.44808449  0.89346486  0.41885395    -0.80000
Cd1159     Cd  0.41532140  0.83623847  0.36237051     1.59700
Cd1160     Cd  0.97277822  0.87644885  0.30019258     1.59600
O1161       O  0.46083510  0.83894712  0.38284485    -0.80000
O1162       O  0.43578750  0.87300126  0.32850399    -1.90500
Cd1163     Cd  0.45756552  0.90740854  0.36442782     1.59900
O1164       O  0.99609287  0.86189898  0.33554289    -0.80000
O1165       O  0.44495288  0.94032838  0.35319597    -0.78600
C1166       C  0.44415889  0.86595481  0.22537584     0.83900
C1167       C  0.35287137  0.81648664  0.30890317     0.83600
O1168       O  0.41678548  0.92416775  0.29879070    -0.77600
C1169       C  0.42429561  0.86998772  0.43442088     0.84400
O1170       O  0.42632685  0.87576631  0.24032148    -0.77700
C1171       C  0.98995547  0.85228452  0.36969533     0.84500
C1172       C  0.01991871  0.93916899  0.32754410     0.84800
O1173       O  0.00753357  0.92410026  0.29658803    -0.80100
O1174       O  0.51337156  0.92275530  0.04808013    -0.77600
C1175       C  0.46049161  0.81340312  0.05201005     0.83400
O1176       O  0.40107946  0.86252642  0.49607093    -0.78700
O1177       O  0.37996618  0.83856800  0.12932965    -0.80200
O1178       O  0.44925396  0.89245387  0.16908062    -0.80000
O1179       O  0.00424420  0.93790473  0.10483386    -0.78600
Zn1180     Zn  0.47296526  0.87969685  0.04088402     1.55700
O1181       O  0.44418733  0.84419157  0.16363096    -0.80000
Cd1182     Cd  0.45750793  0.90835855  0.11501799     1.59700
Cd1183     Cd  0.41000004  0.88097591  0.05064265     1.59600
O1184       O  0.43578740  0.93472245  0.10905214    -0.80000
O1185       O  0.44230952  0.87473964  0.07790219    -1.90500
Cd1186     Cd  0.42276106  0.83684097  0.10949967     1.59900
O1187       O  0.42541761  0.92873989  0.04705066    -0.80000
O1188       O  0.43685419  0.80781331  0.07490722    -0.78600
C1189       C  0.42557094  0.86959473  0.47568376     0.83900
C1190       C  0.02189561  0.94237342  0.07605425     0.83600
O1191       O  0.48023627  0.84162372  0.04052833    -0.77600
C1192       C  0.44650656  0.86730648  0.18398592     0.84400
O1193       O  0.45325631  0.87856501  0.49019804    -0.77700
C1194       C  0.42934951  0.94387004  0.07815611     0.84500
C1195       C  0.36749671  0.85590304  0.11915392     0.84800
O1196       O  0.37385489  0.86987281  0.08726495    -0.80100
O1197       O  0.48668659  0.62857107  0.30508672    -0.77600
C1198       C  0.02026168  0.56447135  0.33009749     0.83400
O1199       O  0.40203435  0.03011748  0.24875313    -0.78700
O1200       O  0.43587016  0.98886248  0.35785336    -0.80200
O1201       O  0.44599191  0.58818328  0.41767452    -0.80000
O1202       O  0.44108671  0.62118694  0.33219950    -0.78600
Zn1203     Zn  0.47392588  0.58211129  0.29672669     1.55700
O1204       O  0.44647799  0.54243403  0.42170170    -0.80000
Cd1205     Cd  0.42372535  0.57540056  0.36421045     1.59700
Cd1206     Cd  0.41017971  0.01854988  0.30245773     1.59600
O1207       O  0.38130116  0.52927668  0.38360688    -0.80000
O1208       O  0.44214861  0.55625068  0.33136313    -1.90500
Cd1209     Cd  0.45634571  0.53644959  0.36756048     1.59900
O1210       O  0.37408963  0.99280016  0.33905869    -0.80000
O1211       O  0.00353237  0.55384882  0.36000288    -0.78600
C1212       C  0.42650943  0.54879538  0.22907616     0.83900
C1213       C  0.46764698  0.63892820  0.31336752     0.83600
O1214       O  0.51159140  0.57485968  0.30176670    -0.77600
C1215       C  0.44614320  0.56604043  0.43731206     0.84400
O1216       O  0.45396482  0.56753065  0.24435077    -0.77700
C1217       C  0.36840324  0.99961509  0.37199526     0.84500
C1218       C  0.43025110  0.97451271  0.32598898     0.84800
O1219       O  0.42584858  0.98636491  0.29586682    -0.80100
O1220       O  0.41730132  0.98146453  0.05140816    -0.77600
C1221       C  0.35223587  0.52380945  0.06056430     0.83400
O1222       O  0.46197460  0.59002116  0.49872778    -0.78700
O1223       O  0.46090764  0.61126684  0.13350296    -0.80200
O1224       O  0.44917533  0.54663011  0.17230401    -0.80000
O1225       O  0.43990819  0.99047818  0.10928617    -0.78600
Zn1226     Zn  0.41074180  0.51903372  0.04538175     1.55700
O1227       O  0.40319603  0.54694094  0.16776164    -0.80000
Cd1228     Cd  0.45600002  0.53732380  0.11817677     1.59700
Cd1229     Cd  0.97309973  0.58272695  0.05298622     1.59600
O1230       O  0.00401210  0.55882893  0.11079098    -0.80000
O1231       O  0.43555988  0.55068510  0.08133372    -1.90500
Cd1232     Cd  0.41510990  0.56812937  0.11389662     1.59900
O1233       O  0.00653747  0.56813555  0.04881842    -0.80000
O1234       O  0.36856828  0.54955047  0.08167822    -0.78600
C1235       C  0.44427790  0.56523342  0.47859477     0.83900
C1236       C  0.42837163  0.97329468  0.07950278     0.83600
O1237       O  0.36439613  0.50679333  0.05009833    -0.77600
C1238       C  0.42553563  0.54699079  0.18766794     0.84400
O1239       O  0.42608409  0.53785337  0.49344248    -0.77700
C1240       C  0.01836669  0.56392054  0.07925030     0.84500
C1241       C  0.99048245  0.62523386  0.12160298     0.84800
O1242       O  0.99732722  0.61999183  0.08852304    -0.80100
O1243       O  0.19611740  0.50983902  0.96979153    -0.77600
C1244       C  0.26153865  0.60884197  0.99653148     0.83400
O1245       O  0.29068105  0.52104031  0.91610497    -0.78700
O1246       O  0.34122179  0.59405470  0.52727722    -0.80200
O1247       O  0.23689062  0.51298268  0.58580926    -0.80000
O1248       O  0.20224532  0.97213074  0.50009651    -0.78600
Zn1249     Zn  0.24236904  0.54415983  0.96421127     1.55700
O1250       O  0.28342674  0.55895253  0.58924893    -0.80000
Cd1251     Cd  0.24811204  0.50139943  0.53291623     1.59700
Cd1252     Cd  0.30355961  0.53986673  0.97006849     1.59600
O1253       O  0.29376706  0.50448214  0.55277073    -0.80000
O1254       O  0.26829837  0.53836524  0.99971199    -1.90500
Cd1255     Cd  0.29241047  0.57370260  0.53450541     1.59900
O1256       O  0.32765813  0.52543877  0.00404031    -0.80000
O1257       O  0.27827380  0.60633181  0.52318912    -0.78600
C1258       C  0.27428680  0.52991077  0.89633237     0.83900
C1259       C  0.18516488  0.98071507  0.97923139     0.83600
O1260       O  0.24729443  0.58755420  0.97084052    -0.77600
C1261       C  0.25955742  0.53560502  0.60511300     0.84400
O1262       O  0.25728298  0.54052033  0.91166096    -0.77700
C1263       C  0.32249864  0.51732346  0.53872630     0.84500
C1264       C  0.35406764  0.60157803  0.49474905     0.84800
O1265       O  0.33865694  0.58677769  0.96485225    -0.80100
O1266       O  0.34530170  0.59137265  0.72283154    -0.77600
C1267       C  0.30065999  0.98282006  0.72659104     0.83400
O1268       O  0.23602025  0.52773162  0.66644002    -0.78700
O1269       O  0.21355629  0.50348525  0.79896990    -0.80200
O1270       O  0.27743899  0.55587761  0.84021860    -0.80000
O1271       O  0.33686117  0.60359211  0.78154966    -0.78600
Zn1272     Zn  0.30745958  0.54722998  0.71408845     1.55700
O1273       O  0.27757645  0.50997458  0.83471898    -0.80000
Cd1274     Cd  0.28925277  0.57343251  0.78712119     1.59700
Cd1275     Cd  0.24394700  0.54626642  0.72071823     1.59600
O1276       O  0.26905509  0.60099810  0.77856877    -0.80000
O1277       O  0.27570663  0.54018361  0.74933537    -1.90500
Cd1278     Cd  0.25702572  0.50157392  0.78016671     1.59900
O1279       O  0.25915500  0.59407284  0.71648124    -0.80000
O1280       O  0.27477719  0.97370276  0.74698627    -0.78600
C1281       C  0.26083353  0.53523015  0.64651155     0.83900
C1282       C  0.35385231  0.60997639  0.75177818     0.83600
O1283       O  0.31880155  0.51217032  0.71769892    -0.77600
C1284       C  0.27677125  0.53161202  0.85504931     0.84400
O1285       O  0.28846933  0.54467594  0.66167572    -0.77700
C1286       C  0.26346403  0.61000731  0.74702210     0.84500
C1287       C  0.20091438  0.52067207  0.78832789     0.84800
O1288       O  0.20735706  0.53452656  0.75637795    -0.80100
O1289       O  0.32018097  0.79242141  0.96965946    -0.77600
C1290       C  0.34777191  0.71885288  0.99825139     0.83400
O1291       O  0.23571980  0.69509247  0.91500639    -0.78700
O1292       O  0.25941187  0.64986085  0.52846513    -0.80200
O1293       O  0.27863774  0.75352316  0.58420218    -0.80000
O1294       O  0.27505548  0.78662202  0.49657418    -0.78600
Zn1295     Zn  0.30732586  0.74516869  0.96465654     1.55700
O1296       O  0.27786925  0.70713145  0.58930859    -0.80000
Cd1297     Cd  0.25695492  0.74135014  0.53015374     1.59700
Cd1298     Cd  0.24215878  0.68330484  0.96934552     1.59600
O1299       O  0.21365774  0.69632794  0.54928812    -0.80000
O1300       O  0.27437336  0.72052862  0.99864074    -1.90500
Cd1301     Cd  0.28481501  0.69784156  0.53569976     1.59900
O1302       O  0.20468867  0.65933764  0.00457516    -0.80000
O1303       O  0.32983086  0.70765869  0.52706827    -0.78600
C1304       C  0.26082671  0.71315414  0.89594537     0.83900
C1305       C  0.30142744  0.80345352  0.97704117     0.83600
O1306       O  0.34272936  0.73403981  0.97184387    -0.77600
C1307       C  0.27839678  0.73134659  0.60429950     0.84400
O1308       O  0.28820761  0.73077301  0.91194283    -0.77700
C1309       C  0.19965378  0.66667221  0.53757035     0.84500
C1310       C  0.25882006  0.63738493  0.49649299     0.84800
O1311       O  0.25738826  0.65034704  0.96561667    -0.80100
O1312       O  0.25053706  0.64703691  0.71999730    -0.77600
C1313       C  0.18663998  0.69139901  0.72736692     0.83400
O1314       O  0.29465911  0.75616876  0.66522906    -0.78700
O1315       O  0.29453818  0.77797183  0.79981193    -0.80200
O1316       O  0.28448935  0.71307704  0.83902376    -0.80000
O1317       O  0.27800578  0.65891809  0.77500515    -0.78600
Zn1318     Zn  0.24447358  0.68507339  0.71313476     1.55700
O1319       O  0.23804368  0.71259785  0.83467745    -0.80000
Cd1320     Cd  0.29238175  0.70543288  0.78457602     1.59700
Cd1321     Cd  0.30687003  0.74944865  0.71904448     1.59600
O1322       O  0.34062285  0.72994643  0.77676748    -0.80000
O1323       O  0.27004352  0.71715922  0.74837032    -1.90500
Cd1324     Cd  0.24943759  0.73435561  0.78102270     1.59900
O1325       O  0.34167188  0.73647211  0.71436934    -0.80000
O1326       O  0.20343737  0.71710717  0.74834840    -0.78600
C1327       C  0.27710560  0.73105074  0.64560296     0.83900
C1328       C  0.26373605  0.64013698  0.74706530     0.83600
O1329       O  0.19801601  0.67348280  0.71773970    -0.77600
C1330       C  0.26039668  0.71249907  0.85446789     0.84400
O1331       O  0.25955834  0.70372005  0.66097942    -0.77700
C1332       C  0.35453816  0.73410370  0.74500316     0.84500
C1333       C  0.32378942  0.79249820  0.78702618     0.84800
O1334       O  0.33030497  0.78737034  0.75372130    -0.80100
O1335       O  0.40313112  0.74257805  0.71668457    -0.77600
C1336       C  0.01148225  0.80447740  0.72455236     0.83400
O1337       O  0.46149074  0.68753913  0.66730856    -0.78700
O1338       O  0.49024716  0.69739974  0.80064061    -0.80200
O1339       O  0.43684001  0.71615486  0.83987485    -0.80000
O1340       O  0.38973776  0.72164212  0.77484985    -0.78600
Zn1341     Zn  0.44640872  0.74519883  0.70990925     1.55700
O1342       O  0.48726210  0.75615282  0.83783642    -0.80000
Cd1343     Cd  0.42000174  0.70526953  0.78594564     1.59700
Cd1344     Cd  0.44594189  0.68333810  0.72250189     1.59600
O1345       O  0.39310637  0.65653209  0.78178541    -0.80000
O1346       O  0.45385947  0.72300526  0.74907977    -1.90500
Cd1347     Cd  0.49305542  0.74344566  0.78159435     1.59900
O1348       O  0.39789732  0.65167403  0.71981827    -0.80000
O1349       O  0.02050011  0.78967868  0.74868697    -0.78600
C1350       C  0.45306789  0.70317295  0.64568514     0.83900
C1351       C  0.38436493  0.73329334  0.74520723     0.83600
O1352       O  0.48291502  0.79085833  0.71090590    -0.77600
C1353       C  0.46247872  0.73670725  0.85672465     0.84400
O1354       O  0.44601832  0.72366281  0.65928124    -0.77700
C1355       C  0.38332106  0.64059961  0.75094475     0.84500
C1356       C  0.47225796  0.66734180  0.79075337     0.84800
O1357       O  0.45733224  0.65931341  0.75927546    -0.80100
O1358       O  0.37829020  0.69765362  0.52345045    -0.77600
C1359       C  0.44835123  0.69685136  0.60454861     0.83400
O1360       O  0.48582803  0.78675732  0.01583491    -0.78700
O1361       O  0.48885894  0.67216979  0.49514013    -0.80200
O1362       O  0.38784282  0.64963121  0.96593247    -0.80000
O1363       O  0.39217937  0.72029452  0.96726906    -0.78600
Zn1364     Zn  0.42338997  0.71475839  0.53821978     1.55700
O1365       O  0.40706522  0.63612011  0.51688172    -0.80000
Cd1366     Cd  0.41807177  0.69708481  0.96126191     1.59700
Cd1367     Cd  0.48709855  0.74749498  0.98160146     1.59600
O1368       O  0.43821902  0.70781070  0.91047367    -0.80000
O1369       O  0.44905909  0.71003078  0.50182437    -1.90500
Cd1370     Cd  0.45323801  0.67527150  0.52549387     1.59900
O1371       O  0.48173356  0.75507826  0.92190058    -0.80000
O1372       O  0.46310653  0.68593893  0.58460867    -0.78600
C1373       C  0.46257999  0.78534602  0.53656311     0.83900
C1374       C  0.37412700  0.71238406  0.49604998     0.83600
O1375       O  0.42867533  0.70378332  0.58942081    -0.77600
C1376       C  0.38518999  0.63016798  0.99182627     0.84400
O1377       O  0.43818805  0.75893993  0.54436197    -0.77700
C1378       C  0.46152451  0.73386125  0.89861656     0.84500
C1379       C  0.01185358  0.69461174  0.97647991     0.84800
O1380       O  0.01591874  0.72355780  0.97487810    -0.80100
O1381       O  0.31438722  0.84076521  0.63447987    -0.77600
C1382       C  0.21651396  0.80424708  0.66218321     0.83400
O1383       O  0.30047516  0.92328391  0.58166581    -0.78700
O1384       O  0.22643035  0.89131568  0.69208706    -0.80200
O1385       O  0.31523624  0.88045268  0.75047583    -0.80000
O1386       O  0.35257966  0.88630964  0.66249850    -0.78600
Zn1387     Zn  0.27952249  0.85179346  0.62864560     1.55700
O1388       O  0.26797396  0.87813871  0.75472873    -0.80000
Cd1389     Cd  0.32407362  0.90229428  0.69683407     1.59700
Cd1390     Cd  0.28144263  0.91626801  0.63548489     1.59600
O1391       O  0.32140974  0.94514600  0.71646650    -0.80000
O1392       O  0.28597759  0.88365384  0.66425324    -1.90500
Cd1393     Cd  0.25208303  0.86915379  0.70029776     1.59900
O1394       O  0.29417934  0.95391758  0.67073178    -0.80000
O1395       O  0.22176251  0.82200797  0.69129104    -0.78600
C1396       C  0.29346770  0.89846387  0.56172592     0.83900
C1397       C  0.34382623  0.86026747  0.64230886     0.83600
O1398       O  0.23557132  0.81273978  0.63403221    -0.77600
C1399       C  0.29237557  0.87919088  0.77025741     0.84400
O1400       O  0.28370129  0.87098073  0.57667832    -0.75900
C1401       C  0.30597872  0.95915689  0.70411574     0.84500
C1402       C  0.21793947  0.89811602  0.66088550     0.84800
O1403       O  0.23371733  0.90235433  0.63041792    -0.80100
O1404       O  0.23611684  0.90876894  0.88508715    -0.77600
C1405       C  0.34477531  0.97072395  0.89439220     0.83400
O1406       O  0.29907051  0.86183008  0.83131223    -0.78700
O1407       O  0.32240686  0.86191827  0.96629868    -0.80200
O1408       O  0.26820498  0.87619917  0.50481876    -0.80000
O1409       O  0.22111233  0.88383445  0.94100699    -0.78600
Zn1410     Zn  0.28041338  0.91407227  0.87965240     1.55700
O1411       O  0.31601491  0.92041648  0.50084361    -0.80000
Cd1412     Cd  0.25235793  0.86824559  0.95069199     1.59700
Cd1413     Cd  0.28114474  0.85029388  0.88590693     1.59600
O1414       O  0.22695693  0.82025448  0.94381329    -0.80000
O1415       O  0.28654649  0.88802773  0.91468376    -1.90500
Cd1416     Cd  0.32500055  0.90766679  0.94700948     1.59900
O1417       O  0.23299692  0.81698367  0.88175194    -0.80000
O1418       O  0.35365767  0.95329910  0.91404106    -0.78600
C1419       C  0.29313412  0.88054909  0.81174918     0.83900
C1420       C  0.21624914  0.89693176  0.91235879     0.83600
O1421       O  0.31528731  0.96024725  0.88604010    -0.77600
C1422       C  0.29282630  0.89920842  0.52039122     0.84400
O1423       O  0.28450502  0.89915815  0.82716714    -0.77700
C1424       C  0.21739115  0.80550234  0.91230471     0.84500
C1425       C  0.30675208  0.83231908  0.95419537     0.84800
O1426       O  0.29429794  0.82545088  0.92107086    -0.80100
O1427       O  0.17875902  0.75596438  0.88501993    -0.77600
C1428       C  0.13236515  0.64810710  0.89258427     0.83400
O1429       O  0.06831352  0.69345738  0.83071799    -0.78700
O1430       O  0.04519370  0.66943566  0.96289896    -0.80200
O1431       O  0.11409967  0.72470053  0.50461950    -0.80000
O1432       O  0.16876242  0.77167697  0.94077663    -0.78600
Zn1433     Zn  0.13966434  0.71245206  0.87837552     1.55700
O1434       O  0.10961269  0.67653862  0.49990654    -0.80000
Cd1435     Cd  0.12189435  0.74050028  0.95040186     1.59700
Cd1436     Cd  0.07635832  0.71220329  0.88479556     1.59600
O1437       O  0.09837743  0.76519228  0.94289253    -0.80000
O1438       O  0.10814857  0.70633608  0.91390980    -1.90500
Cd1439     Cd  0.08903372  0.66781516  0.94516674     1.59900
O1440       O  0.09134407  0.75997329  0.88034891    -0.80000
O1441       O  0.10652847  0.63935993  0.91292098    -0.78600
C1442       C  0.09313194  0.70062351  0.81098822     0.83900
C1443       C  0.18683857  0.77593818  0.91245311     0.83600
O1444       O  0.15044423  0.67722480  0.88289068    -0.77600
C1445       C  0.11185888  0.69983674  0.51983910     0.84400
O1446       O  0.12060459  0.70963656  0.82626577    -0.77700
C1447       C  0.09373563  0.77485277  0.91124600     0.84500
C1448       C  0.03314523  0.68715612  0.95222176     0.84800
O1449       O  0.03971200  0.70085090  0.92017190    -0.80100
O1450       O  0.03063260  0.67824802  0.63452613    -0.77600
C1451       C  0.09594673  0.77733850  0.66156272     0.83400
O1452       O  0.12808343  0.69206924  0.58117662    -0.78700
O1453       O  0.17248573  0.76449944  0.69354770    -0.80200
O1454       O  0.07020505  0.67906932  0.74982052    -0.80000
O1455       O  0.03662672  0.64024985  0.66442652    -0.78600
Zn1456     Zn  0.07705378  0.71269794  0.62866325     1.55700
O1457       O  0.11592236  0.72555582  0.75451593    -0.80000
Cd1458     Cd  0.08267190  0.66899642  0.69685698     1.59700
Cd1459     Cd  0.13999134  0.71061576  0.63564320     1.59600
O1460       O  0.12817369  0.67149846  0.71713956    -0.80000
O1461       O  0.10282697  0.70650255  0.66409397    -1.90500
Cd1462     Cd  0.12423425  0.74087479  0.70022816     1.59900
O1463       O  0.16412921  0.69716019  0.67124612    -0.80000
O1464       O  0.10991180  0.77295124  0.68983748    -0.78600
C1465       C  0.11014820  0.69897704  0.56125676     0.83900
C1466       C  0.01949373  0.64907152  0.64405257     0.83600
O1467       O  0.08296318  0.75699094  0.63457835    -0.77600
C1468       C  0.09225212  0.70163384  0.76972204     0.84400
O1469       O  0.09203874  0.70836536  0.57636463    -0.77700
C1470       C  0.15758783  0.68614685  0.70478937     0.84500
C1471       C  0.18669372  0.77384542  0.66195521     0.84800
O1472       O  0.17425867  0.75829186  0.63129376    -0.80100
O1473       O  0.15266873  0.96156319  0.63323358    -0.77600
C1474       C  0.18820360  0.89877479  0.66139059     0.83400
O1475       O  0.06936201  0.86320639  0.58072003    -0.78700
O1476       O  0.10236842  0.82264068  0.69241688    -0.80200
O1477       O  0.11366835  0.92263507  0.75052784    -0.80000
O1478       O  0.10906347  0.95577702  0.66415024    -0.78600
Zn1479     Zn  0.14122365  0.91541646  0.62776857     1.55700
O1480       O  0.11575568  0.87769978  0.75418790    -0.80000
Cd1481     Cd  0.09175983  0.90988048  0.69666032     1.59700
Cd1482     Cd  0.07726911  0.85253097  0.63484372     1.59600
O1483       O  0.04967222  0.86334453  0.71638310    -0.80000
O1484       O  0.10979490  0.89029077  0.66357281    -1.90500
Cd1485     Cd  0.12414656  0.87056771  0.69988750     1.59900
O1486       O  0.03953063  0.82808706  0.66922626    -0.80000
O1487       O  0.17089049  0.88685559  0.69064287    -0.78600
C1488       C  0.09386510  0.88098032  0.56070006     0.83900
C1489       C  0.13463587  0.97268306  0.64332166     0.83600
O1490       O  0.17982910  0.90978679  0.63342958    -0.77600
C1491       C  0.11454954  0.90076102  0.76999370     0.84400
O1492       O  0.12148131  0.89951431  0.57565341    -0.77700
C1493       C  0.03515584  0.83408197  0.70314221     0.84500
C1494       C  0.09598161  0.80742524  0.66113082     0.84800
O1495       O  0.09138977  0.81874941  0.63061627    -0.80100
O1496       O  0.08306383  0.81324238  0.88323077    -0.77600
C1497       C  0.01916963  0.85765452  0.89198974     0.83400
O1498       O  0.12977347  0.92374953  0.83203479    -0.78700
O1499       O  0.12680347  0.94322332  0.96703542    -0.80200
O1500       O  0.11625618  0.87874741  0.50382642    -0.80000
O1501       O  0.10533379  0.82209352  0.94131128    -0.78600
Zn1502     Zn  0.07740798  0.85172845  0.87702993     1.55700
O1503       O  0.06976575  0.87806193  0.49966490    -0.80000
Cd1504     Cd  0.12260362  0.86911996  0.94982610     1.59700
Cd1505     Cd  0.14050207  0.91543085  0.88608253     1.59600
O1506       O  0.17066937  0.89016233  0.94268950    -0.80000
O1507       O  0.10241695  0.88297726  0.91336186    -1.90500
Cd1508     Cd  0.08172317  0.90007931  0.94632226     1.59900
O1509       O  0.17463734  0.90170481  0.88129959    -0.80000
O1510       O  0.03557726  0.88290081  0.91381196    -0.78600
C1511       C  0.11218448  0.89931158  0.81129859     0.83900
C1512       C  0.09354412  0.80475802  0.91170084     0.83600
O1513       O  0.03103842  0.84042206  0.88122512    -0.77600
C1514       C  0.09250117  0.87870840  0.51937402     0.84400
O1515       O  0.09372530  0.87165488  0.82549301    -0.77700
C1516       C  0.18602498  0.89690235  0.91171744     0.84500
C1517       C  0.15662953  0.95685403  0.95615994     0.84800
O1518       O  0.16411867  0.95157083  0.92344608    -0.80100
O1519       O  0.14763579  0.50632080  0.80178932    -0.77600
C1520       C  0.04952274  0.96969754  0.82833591     0.83400
O1521       O  0.13109274  0.58852286  0.74876892    -0.78700
O1522       O  0.05862896  0.55669917  0.86026299    -0.80200
O1523       O  0.14853503  0.54744042  0.91787146    -0.80000
O1524       O  0.18557458  0.55134837  0.83088985    -0.78600
Zn1525     Zn  0.11275997  0.51751023  0.79543075     1.55700
O1526       O  0.10037420  0.54322558  0.92172643    -0.80000
Cd1527     Cd  0.15685854  0.56815126  0.86380907     1.59700
Cd1528     Cd  0.11244194  0.58061952  0.80272853     1.59600
O1529       O  0.15395117  0.61107987  0.88275681    -0.80000
O1530       O  0.11844920  0.54891122  0.83144073    -1.90500
Cd1531     Cd  0.08433932  0.53432132  0.86747044     1.59900
O1532       O  0.12473604  0.61796365  0.83785767    -0.80000
O1533       O  0.05417553  0.98726379  0.85751546    -0.78600
C1534       C  0.12516510  0.56418125  0.72850864     0.83900
C1535       C  0.17695896  0.52526710  0.81078929     0.83600
O1536       O  0.06896858  0.97841666  0.80056655    -0.77600
C1537       C  0.12533650  0.54565410  0.93738317     0.84400
O1538       O  0.11665838  0.53682932  0.74320931    -0.77700
C1539       C  0.13752007  0.62415752  0.87070296     0.84500
C1540       C  0.04959056  0.56301722  0.82914036     0.84800
O1541       O  0.06458407  0.56620121  0.79829144    -0.80100
O1542       O  0.06796903  0.57549948  0.55206404    -0.77600
C1543       C  0.17601586  0.63826143  0.56031212     0.83400
O1544       O  0.13445793  0.03125463  0.99887706    -0.78700
O1545       O  0.15502699  0.53104094  0.63347594    -0.80200
O1546       O  0.10057041  0.54180973  0.67108771    -0.80000
O1547       O  0.05261785  0.54896275  0.60708142    -0.78600
Zn1548     Zn  0.11205787  0.58099516  0.54566657     1.55700
O1549       O  0.14680707  0.58785835  0.66788587    -0.80000
Cd1550     Cd  0.08477254  0.53432519  0.61661051     1.59700
Cd1551     Cd  0.11485066  0.01912858  0.55217103     1.59600
O1552       O  0.06161625  0.98637001  0.60808838    -0.80000
O1553       O  0.11891608  0.55602971  0.58117278    -1.90500
Cd1554     Cd  0.15682948  0.57617120  0.61408948     1.59900
O1555       O  0.06727090  0.98496476  0.54574083    -0.80000
O1556       O  0.18505566  0.62157746  0.58111331    -0.78600
C1557       C  0.12632815  0.54798461  0.97870207     0.83900
C1558       C  0.04805810  0.56303427  0.57918337     0.83600
O1559       O  0.14661644  0.62721350  0.55102171    -0.77600
C1560       C  0.12442827  0.56539540  0.68712021     0.84400
O1561       O  0.11586460  0.56533599  0.99347841    -0.77700
C1562       C  0.05216701  0.97222416  0.57618780     0.84500
C1563       C  0.13948549  0.00152500  0.62122876     0.84800
O1564       O  0.12745922  0.99471132  0.58796129    -0.80100
O1565       O  0.36454348  0.84542453  0.79801585    -0.77600
C1566       C  0.43047062  0.94463637  0.82551501     0.83400
O1567       O  0.46135647  0.85826629  0.74552347    -0.78700
O1568       O  0.00570647  0.92922278  0.85899334    -0.80200
O1569       O  0.40248753  0.84692337  0.91488927    -0.80000
O1570       O  0.36946818  0.80766401  0.83020780    -0.78600
Zn1571     Zn  0.41086370  0.87985209  0.79254864     1.55700
O1572       O  0.44808487  0.89346787  0.91885191    -0.80000
Cd1573     Cd  0.41532070  0.83624111  0.86237051     1.59700
Cd1574     Cd  0.97277882  0.87644785  0.80019182     1.59600
O1575       O  0.46083419  0.83895001  0.88284668    -0.80000
O1576       O  0.43578811  0.87300225  0.82850185    -1.90500
Cd1577     Cd  0.45756587  0.90740997  0.86442504     1.59900
O1578       O  0.99609116  0.86189566  0.83554265    -0.80000
O1579       O  0.44495290  0.94032944  0.85319109    -0.78600
C1580       C  0.44416147  0.86595577  0.72537467     0.83900
C1581       C  0.35287158  0.81648854  0.80890121     0.83600
O1582       O  0.41678468  0.92416788  0.79878650    -0.77600
C1583       C  0.42429532  0.86999158  0.93441931     0.84400
O1584       O  0.42632994  0.87576797  0.74031977    -0.77700
C1585       C  0.98995423  0.85228433  0.86969636     0.84500
C1586       C  0.01992001  0.93916822  0.82754319     0.84800
O1587       O  0.00753572  0.92409893  0.79658790    -0.80100
O1588       O  0.51336983  0.92275457  0.54808167    -0.77600
C1589       C  0.46049323  0.81340202  0.55201222     0.83400
O1590       O  0.40107998  0.86253045  0.99607000    -0.78700
O1591       O  0.37996633  0.83856648  0.62933139    -0.80200
O1592       O  0.44925474  0.89245374  0.66907979    -0.80000
O1593       O  0.00423832  0.93790827  0.60483041    -0.78600
Zn1594     Zn  0.47296498  0.87969507  0.54088601     1.55700
O1595       O  0.44418938  0.84419185  0.66363051    -0.80000
Cd1596     Cd  0.45750368  0.90835755  0.61501738     1.59700
Cd1597     Cd  0.40999867  0.88097279  0.55064289     1.59600
O1598       O  0.43577717  0.93471610  0.60905423    -0.80000
O1599       O  0.44230854  0.87473768  0.57790301    -1.90500
Cd1600     Cd  0.42276117  0.83683926  0.60950070     1.59900
O1601       O  0.42541470  0.92873698  0.54705142    -0.80000
O1602       O  0.43685534  0.80781184  0.57490913    -0.78600
C1603       C  0.42557135  0.86959886  0.97568240     0.83900
C1604       C  0.02189150  0.94237493  0.57605235     0.83600
O1605       O  0.48023767  0.84162267  0.54053115    -0.77600
C1606       C  0.44650868  0.86730689  0.68398504     0.84400
O1607       O  0.45325660  0.87856836  0.99019619    -0.77700
C1608       C  0.42934382  0.94386613  0.57815794     0.84500
C1609       C  0.36749551  0.85589987  0.61915368     0.84800
O1610       O  0.37385236  0.86986756  0.58726346    -0.80100
O1611       O  0.48668638  0.62857130  0.80508915    -0.77600
C1612       C  0.02025897  0.56446920  0.83009703     0.83400
O1613       O  0.40203337  0.03011981  0.74875220    -0.78700
O1614       O  0.43586477  0.98885985  0.85785122    -0.80200
O1615       O  0.44599085  0.58818199  0.91767403    -0.80000
O1616       O  0.44108639  0.62118782  0.83220077    -0.78600
Zn1617     Zn  0.47392472  0.58211140  0.79672764     1.55700
O1618       O  0.44647338  0.54243086  0.92170059    -0.80000
Cd1619     Cd  0.42372404  0.57540078  0.86421028     1.59700
Cd1620     Cd  0.41017681  0.01855035  0.80245656     1.59600
O1621       O  0.38129979  0.52927758  0.88360671    -0.80000
O1622       O  0.44214633  0.55625013  0.83136274    -1.90500
Cd1623     Cd  0.45634156  0.53644683  0.86755934     1.59900
O1624       O  0.37408657  0.99280104  0.83905763    -0.80000
O1625       O  0.00352824  0.55384428  0.86000200    -0.78600
C1626       C  0.42650936  0.54879695  0.72907592     0.83900
C1627       C  0.46764700  0.63892886  0.81336950     0.83600
O1628       O  0.51158990  0.57485936  0.80176774    -0.77600
C1629       C  0.44614045  0.56603821  0.93731123     0.84400
O1630       O  0.45396463  0.56753154  0.74435131    -0.77700
C1631       C  0.36840123  0.99961590  0.87199473     0.84500
C1632       C  0.43024744  0.97451167  0.82598588     0.84800
O1633       O  0.42584495  0.98636461  0.79586450    -0.80100
O1634       O  0.41730100  0.98146394  0.55140795    -0.77600
C1635       C  0.35223863  0.52381076  0.56056399     0.83400
O1636       O  0.46197308  0.59001888  0.99872662    -0.78700
O1637       O  0.46090821  0.61126765  0.63350396    -0.80200
O1638       O  0.44917625  0.54663083  0.67230464    -0.80000
O1639       O  0.43990514  0.99047560  0.60928735    -0.78600
Zn1640     Zn  0.41074430  0.51903494  0.54538187     1.55700
O1641       O  0.40319703  0.54694169  0.66776059    -0.80000
Cd1642     Cd  0.45600027  0.53732243  0.61817762     1.59700
Cd1643     Cd  0.97310143  0.58272891  0.55298729     1.59600
O1644       O  0.00401191  0.55882629  0.61079064    -0.80000
O1645       O  0.43556207  0.55068566  0.58133435    -1.90500
Cd1646     Cd  0.41511176  0.56813019  0.61389615     1.59900
O1647       O  0.00653996  0.56813881  0.54881910    -0.80000
O1648       O  0.36857071  0.54955198  0.58167761    -0.78600
C1649       C  0.44427543  0.56523119  0.97859392     0.83900
C1650       C  0.42836830  0.97329219  0.57950296     0.83600
O1651       O  0.36439916  0.50679489  0.55009839    -0.77600
C1652       C  0.42553646  0.54699200  0.68766767     0.84400
O1653       O  0.42608102  0.53785151  0.99344183    -0.77700
C1654       C  0.01836796  0.56392155  0.57924956     0.84500
C1655       C  0.99048309  0.62523469  0.62160463     0.84800
O1656       O  0.99732836  0.61999316  0.58852477    -0.80100
O1657       O  0.69611762  0.00983829  0.46979584    -0.77600
C1658       C  0.76154183  0.10884228  0.49653380     0.83400
O1659       O  0.79068207  0.02104052  0.41610490    -0.78700
O1660       O  0.84122006  0.09405666  0.02727680    -0.80200
O1661       O  0.73688844  0.01298536  0.08580977    -0.80000
O1662       O  0.70224264  0.47213220  0.00009761    -0.78600
Zn1663     Zn  0.74236956  0.04415898  0.46421362     1.55700
O1664       O  0.78342544  0.05895420  0.08924907    -0.80000
Cd1665     Cd  0.74810961  0.00140123  0.03291703     1.59700
Cd1666     Cd  0.80356122  0.03986658  0.47006835     1.59600
O1667       O  0.79376449  0.00448289  0.05277145    -0.80000
O1668       O  0.76829986  0.03836415  0.49971225    -1.90500
Cd1669     Cd  0.79240849  0.07370393  0.03450497     1.59900
O1670       O  0.82766085  0.02543983  0.50403999    -0.80000
O1671       O  0.77827018  0.10633194  0.02318764    -0.78600
C1672       C  0.77428680  0.02991053  0.39633307     0.83900
C1673       C  0.68516635  0.48071376  0.47923279     0.83600
O1674       O  0.74729596  0.08755408  0.47084367    -0.77600
C1675       C  0.75955617  0.03560746  0.10511344     0.84400
O1676       O  0.75728267  0.04051924  0.41166257    -0.77700
C1677       C  0.82249587  0.01732292  0.03872678     0.84500
C1678       C  0.85406654  0.10157869  0.99474888     0.84800
O1679       O  0.83865760  0.08677782  0.46485232    -0.80100
O1680       O  0.84530125  0.09137296  0.22283305    -0.77600
C1681       C  0.80065840  0.48281953  0.22659099     0.83400
O1682       O  0.73601900  0.02773164  0.16644083    -0.78700
O1683       O  0.71355670  0.00348537  0.29897143    -0.80200
O1684       O  0.77743769  0.05587727  0.34021957    -0.80000
O1685       O  0.83685964  0.10359317  0.28155032    -0.78600
Zn1686     Zn  0.80745866  0.04723071  0.21408843     1.55700
O1687       O  0.77757708  0.00997529  0.33471936    -0.80000
Cd1688     Cd  0.78925131  0.07343231  0.28712202     1.59700
Cd1689     Cd  0.74394580  0.04626595  0.22071905     1.59600
O1690       O  0.76905175  0.10099606  0.27856938    -0.80000
O1691       O  0.77570596  0.04018380  0.24933570    -1.90500
Cd1692     Cd  0.75702581  0.00157435  0.28016748     1.59900
O1693       O  0.75915362  0.09407196  0.21648148    -0.80000
O1694       O  0.77477636  0.47370244  0.24698757    -0.78600
C1695       C  0.76083217  0.03523186  0.14651204     0.83900
C1696       C  0.85385129  0.10997699  0.25177954     0.83600
O1697       O  0.81879900  0.01216971  0.21769697    -0.77600
C1698       C  0.77677091  0.03161189  0.35505004     0.84400
O1699       O  0.78846858  0.04467858  0.16167595    -0.77700
C1700       C  0.76346143  0.11000565  0.24702240     0.84500
C1701       C  0.70091431  0.02067176  0.28832943     0.84800
O1702       O  0.70735622  0.03452581  0.25637924    -0.80100
O1703       O  0.82018120  0.29242061  0.46965870    -0.77600
C1704       C  0.84776535  0.21883797  0.49829161     0.83400
O1705       O  0.73571901  0.19508935  0.41500776    -0.78700
O1706       O  0.75940214  0.14985711  0.02846268    -0.80200
O1707       O  0.77863669  0.25352190  0.08420142    -0.80000
O1708       O  0.77505422  0.28662215  0.99657247    -0.78600
Zn1709     Zn  0.80732619  0.24516800  0.46465553     1.55700
O1710       O  0.77786705  0.20712941  0.08930764    -0.80000
Cd1711     Cd  0.75695356  0.24135043  0.03015274     1.59700
Cd1712     Cd  0.74215943  0.18330370  0.46934733     1.59600
O1713       O  0.71365557  0.19632906  0.04928614    -0.80000
O1714       O  0.77437479  0.22052870  0.49864112    -1.90500
Cd1715     Cd  0.78480979  0.19783750  0.03569836     1.59900
O1716       O  0.70468945  0.15933660  0.50457639    -0.80000
O1717       O  0.82981969  0.20764678  0.02707306    -0.78600
C1718       C  0.76082531  0.21315154  0.39594610     0.83900
C1719       C  0.80142826  0.30345314  0.47704202     0.83600
O1720       O  0.84272935  0.23404326  0.47183350    -0.77600
C1721       C  0.77839595  0.23134523  0.10429858     0.84400
O1722       O  0.78820631  0.23077142  0.41194279    -0.77700
C1723       C  0.69965212  0.16667315  0.03756866     0.84500
C1724       C  0.75881545  0.13738385  0.99649020     0.84800
O1725       O  0.75738873  0.15034587  0.46561927    -0.80100
O1726       O  0.75053603  0.14703608  0.21999693    -0.77600
C1727       C  0.68663954  0.19139820  0.22736712     0.83400
O1728       O  0.79466054  0.25616773  0.16522814    -0.78700
O1729       O  0.79453832  0.27796906  0.29981383    -0.80200
O1730       O  0.78448754  0.21307372  0.33902466    -0.80000
O1731       O  0.77800307  0.15891580  0.27500595    -0.78600
Zn1732     Zn  0.74447369  0.18507305  0.21313438     1.55700
O1733       O  0.73804232  0.21259530  0.33467815    -0.80000
Cd1734     Cd  0.79238035  0.20543049  0.28457700     1.59700
Cd1735     Cd  0.80687056  0.24944875  0.21904513     1.59600
O1736       O  0.84062143  0.22994274  0.27677021    -0.80000
O1737       O  0.77004372  0.21715843  0.24837048    -1.90500
Cd1738     Cd  0.74943715  0.23435375  0.28102364     1.59900
O1739       O  0.84167323  0.23647321  0.21437261    -0.80000
O1740       O  0.70343666  0.21710580  0.24834966    -0.78600
C1741       C  0.77710621  0.23104981  0.14560224     0.83900
C1742       C  0.76373386  0.14013536  0.24706572     0.83600
O1743       O  0.69801617  0.17348279  0.21773853    -0.77600
C1744       C  0.76039490  0.21249590  0.35446871     0.84400
O1745       O  0.75955849  0.20371935  0.16097895    -0.77700
C1746       C  0.85453815  0.23410274  0.24500591     0.84500
C1747       C  0.82378947  0.29249697  0.28702737     0.84800
O1748       O  0.83030468  0.28737120  0.25372135    -0.80100
O1749       O  0.90313164  0.24257895  0.21668785    -0.77600
C1750       C  0.51148289  0.30447862  0.22455298     0.83400
O1751       O  0.96148840  0.18753941  0.16730829    -0.78700
O1752       O  0.99024737  0.19739917  0.30063852    -0.80200
O1753       O  0.93684187  0.21615465  0.33987617    -0.80000
O1754       O  0.88973805  0.22164125  0.27485246    -0.78600
Zn1755     Zn  0.94640891  0.24520000  0.20991065     1.55700
O1756       O  0.98726408  0.25615240  0.33783679    -0.80000
Cd1757     Cd  0.92000257  0.20526914  0.28594735     1.59700
Cd1758     Cd  0.94594028  0.18333834  0.22250182     1.59600
O1759       O  0.89310728  0.15653159  0.28178729    -0.80000
O1760       O  0.95385969  0.22300583  0.24908052    -1.90500
Cd1761     Cd  0.99305625  0.24344582  0.28159388     1.59900
O1762       O  0.89789543  0.15167542  0.21981924    -0.80000
O1763       O  0.52050084  0.28967959  0.24868722    -0.78600
C1764       C  0.95306648  0.20317416  0.14568534     0.83900
C1765       C  0.88436519  0.23329298  0.24521086     0.83600
O1766       O  0.98291559  0.29085965  0.21090689    -0.77600
C1767       C  0.96248123  0.23670703  0.35672555     0.84400
O1768       O  0.94601759  0.22366442  0.15928186    -0.77700
C1769       C  0.88332039  0.14060016  0.25094596     0.84500
C1770       C  0.97225731  0.16734116  0.29075175     0.84800
O1771       O  0.95733052  0.15931275  0.25927452    -0.80100
O1772       O  0.87828787  0.19765540  0.02344329    -0.77600
C1773       C  0.94835049  0.19685357  0.10454854     0.83400
O1774       O  0.98582966  0.28675649  0.51583597    -0.78700
O1775       O  0.98885967  0.17217191  0.99514163    -0.80200
O1776       O  0.88784403  0.14963057  0.46593238    -0.80000
O1777       O  0.89217762  0.22029198  0.46727523    -0.78600
Zn1778     Zn  0.92338888  0.21475976  0.03821842     1.55700
O1779       O  0.90706446  0.13612032  0.01688093    -0.80000
Cd1780     Cd  0.91807335  0.19708408  0.46126190     1.59700
Cd1781     Cd  0.98710019  0.24749409  0.48160230     1.59600
O1782       O  0.93822213  0.20780946  0.41047430    -0.80000
O1783       O  0.94905799  0.21003136  0.00182368    -1.90500
Cd1784     Cd  0.95323714  0.17527222  0.02549407     1.59900
O1785       O  0.98173546  0.25507791  0.42190161    -0.80000
O1786       O  0.96310399  0.18593867  0.08460925    -0.78600
C1787       C  0.96257776  0.28534687  0.03656056     0.83900
C1788       C  0.87411419  0.21236472  0.99609068     0.83600
O1789       O  0.92867735  0.20378868  0.08941999    -0.77600
C1790       C  0.88519102  0.13016745  0.49182686     0.84400
O1791       O  0.93818495  0.25894097  0.04435769    -0.77700
C1792       C  0.96152685  0.23386032  0.39861726     0.84500
C1793       C  0.51185325  0.19460961  0.47647859     0.84800
O1794       O  0.51591943  0.22355594  0.47487774    -0.80100
O1795       O  0.81438798  0.34076593  0.13448149    -0.77600
C1796       C  0.71651277  0.30424701  0.16218330     0.83400
O1797       O  0.80047516  0.42328319  0.08166606    -0.78700
O1798       O  0.72643170  0.39131865  0.19208767    -0.80200
O1799       O  0.81523298  0.38044943  0.25047723    -0.80000
O1800       O  0.85257933  0.38631122  0.16249959    -0.78600
Zn1801     Zn  0.77952248  0.35179292  0.12864639     1.55700
O1802       O  0.76797117  0.37813647  0.25473000    -0.80000
Cd1803     Cd  0.82407160  0.40229303  0.19683642     1.59700
Cd1804     Cd  0.78144199  0.41626707  0.13548514     1.59600
O1805       O  0.82140712  0.44514454  0.21646853    -0.80000
O1806       O  0.78597667  0.38365308  0.16425423    -1.90500
Cd1807     Cd  0.75208172  0.36915413  0.20029825     1.59900
O1808       O  0.79417822  0.45391662  0.17073227    -0.80000
O1809       O  0.72175973  0.32200913  0.19128972    -0.78600
C1810       C  0.79346809  0.39846339  0.06172575     0.83900
C1811       C  0.84382684  0.36026937  0.14230965     0.83600
O1812       O  0.73557156  0.31273847  0.13403389    -0.77600
C1813       C  0.79237243  0.37918764  0.27025876     0.84400
O1814       O  0.78370158  0.37098011  0.07667810    -0.75900
C1815       C  0.80597700  0.45915602  0.20411659     0.84500
C1816       C  0.71793955  0.39811623  0.16088499     0.84800
O1817       O  0.73371664  0.40235263  0.13041741    -0.80100
O1818       O  0.73611698  0.40876811  0.38509088    -0.77600
C1819       C  0.84477634  0.47072276  0.39439194     0.83400
O1820       O  0.79907050  0.36182897  0.33131363    -0.78700
O1821       O  0.82240671  0.36191787  0.46630097    -0.80200
O1822       O  0.76820482  0.37620041  0.00481797    -0.80000
O1823       O  0.72111057  0.38382878  0.44100774    -0.78600
Zn1824     Zn  0.78041278  0.41407047  0.37965362     1.55700
O1825       O  0.81601600  0.42041603  0.00084317    -0.80000
Cd1826     Cd  0.75235796  0.36824263  0.45069314     1.59700
Cd1827     Cd  0.78114537  0.35029333  0.38590851     1.59600
O1828       O  0.72695799  0.32025142  0.44381455    -0.80000
O1829       O  0.78654691  0.38802693  0.41468530    -1.90500
Cd1830     Cd  0.82500056  0.40766648  0.44701140     1.59900
O1831       O  0.73299723  0.31698386  0.38175261    -0.80000
O1832       O  0.85365831  0.45329866  0.41404293    -0.78600
C1833       C  0.79313111  0.38054592  0.31175041     0.83900
C1834       C  0.71624828  0.39692830  0.41236063     0.83600
O1835       O  0.81528864  0.46024527  0.38603719    -0.77600
C1836       C  0.79282691  0.39920848  0.02039080     0.84400
O1837       O  0.78450086  0.39915388  0.32716847    -0.77700
C1838       C  0.71739096  0.30550151  0.41230541     0.84500
C1839       C  0.80675260  0.33231878  0.45419694     0.84800
O1840       O  0.79429898  0.32545079  0.42107222    -0.80100
O1841       O  0.67875907  0.25596366  0.38502014    -0.77600
C1842       C  0.63236566  0.14810669  0.39258400     0.83400
O1843       O  0.56831265  0.19345305  0.33071760    -0.78700
O1844       O  0.54519347  0.16943376  0.46289813    -0.80200
O1845       O  0.61410054  0.22470157  0.00462080    -0.80000
O1846       O  0.66875935  0.27167855  0.44077335    -0.78600
Zn1847     Zn  0.63966430  0.21245140  0.37837521     1.55700
O1848       O  0.60961337  0.17653966  0.99990765    -0.80000
Cd1849     Cd  0.62189173  0.24049925  0.45040012     1.59700
Cd1850     Cd  0.57635641  0.21219968  0.38479423     1.59600
O1851       O  0.59837021  0.26518676  0.44289120    -0.80000
O1852       O  0.60814792  0.20633475  0.41390899    -1.90500
Cd1853     Cd  0.58903345  0.16781378  0.44516575     1.59900
O1854       O  0.59134031  0.25996952  0.38034722    -0.80000
O1855       O  0.60652880  0.13935921  0.41292047    -0.78600
C1856       C  0.59313165  0.20062103  0.31098794     0.83900
C1857       C  0.68683731  0.27593841  0.41245144     0.83600
O1858       O  0.65044462  0.17722443  0.38289051    -0.77600
C1859       C  0.61185972  0.19983771  0.01984028     0.84400
O1860       O  0.62060452  0.20963562  0.32626554    -0.77700
C1861       C  0.59373006  0.27484820  0.41124430     0.84500
C1862       C  0.53314382  0.18715281  0.45222023     0.84800
O1863       O  0.53970902  0.20084596  0.42016919    -0.80100
O1864       O  0.53063289  0.17824729  0.13452238    -0.77600
C1865       C  0.59594458  0.27733825  0.16156556     0.83400
O1866       O  0.62808227  0.19206801  0.08117777    -0.78700
O1867       O  0.67248395  0.26450070  0.19354807    -0.80200
O1868       O  0.57020389  0.17906802  0.24982032    -0.80000
O1869       O  0.53662580  0.14024954  0.16442583    -0.78600
Zn1870     Zn  0.57705391  0.21269871  0.12866331     1.55700
O1871       O  0.61592180  0.22555398  0.25451625    -0.80000
Cd1872     Cd  0.58267102  0.16899586  0.19685687     1.59700
Cd1873     Cd  0.63999045  0.21061461  0.13564429     1.59600
O1874       O  0.62817311  0.17149841  0.21714042    -0.80000
O1875       O  0.60282631  0.20650249  0.16409468    -1.90500
Cd1876     Cd  0.62423246  0.24087448  0.20022920     1.59900
O1877       O  0.66412819  0.19715839  0.17124625    -0.80000
O1878       O  0.60990823  0.27295014  0.18984043    -0.78600
C1879       C  0.61014871  0.19897800  0.06125777     0.83900
C1880       C  0.51949345  0.14907099  0.14405023     0.83600
O1881       O  0.58296219  0.25699124  0.13457953    -0.77600
C1882       C  0.59225142  0.20163173  0.26972210     0.84400
O1883       O  0.59204042  0.20836768  0.07636551    -0.77700
C1884       C  0.65758711  0.18614605  0.20478991     0.84500
C1885       C  0.68669267  0.27384535  0.16195590     0.84800
O1886       O  0.67425846  0.25829048  0.13129474    -0.80100
O1887       O  0.65266898  0.46156374  0.13323190    -0.77600
C1888       C  0.68820332  0.39877396  0.16139003     0.83400
O1889       O  0.56936286  0.36320718  0.08072046    -0.78700
O1890       O  0.60236524  0.32264010  0.19241963    -0.80200
O1891       O  0.61367065  0.42263687  0.25052927    -0.80000
O1892       O  0.60906661  0.45578036  0.16415301    -0.78600
Zn1893     Zn  0.64122424  0.41541703  0.12776864     1.55700
O1894       O  0.61575788  0.37770150  0.25418867    -0.80000
Cd1895     Cd  0.59176171  0.40988261  0.19666206     1.59700
Cd1896     Cd  0.57726935  0.35253251  0.13484495     1.59600
O1897       O  0.54967422  0.36334592  0.21638523    -0.80000
O1898       O  0.60979581  0.39029224  0.16357382    -1.90500
Cd1899     Cd  0.62414622  0.37056757  0.19988810     1.59900
O1900       O  0.53952991  0.32808938  0.16922648    -0.80000
O1901       O  0.67088928  0.38685291  0.19064102    -0.78600
C1902       C  0.59386594  0.38098044  0.06070034     0.83900
C1903       C  0.63463810  0.47268532  0.14332248     0.83600
O1904       O  0.67982985  0.40978785  0.13342973    -0.77600
C1905       C  0.61455197  0.40076275  0.26999474     0.84400
O1906       O  0.62148228  0.39951416  0.07565370    -0.77700
C1907       C  0.53515659  0.33408371  0.20314340     0.84500
C1908       C  0.59597915  0.30742488  0.16113272     0.84800
O1909       O  0.59138886  0.31874990  0.13061863    -0.80100
O1910       O  0.58306314  0.31324094  0.38322786    -0.77600
C1911       C  0.51917088  0.35765465  0.39198855     0.83400
O1912       O  0.62977603  0.42375002  0.33203637    -0.78700
O1913       O  0.62680487  0.44322368  0.46703497    -0.80200
O1914       O  0.61625826  0.37875066  0.00382623    -0.80000
O1915       O  0.60532617  0.32208774  0.44131176    -0.78600
Zn1916     Zn  0.57740846  0.35172796  0.37702923     1.55700
O1917       O  0.56976544  0.37806027  0.99966539    -0.80000
Cd1918     Cd  0.62260048  0.36911509  0.44982664     1.59700
Cd1919     Cd  0.64050314  0.41542970  0.38608407     1.59600
O1920       O  0.67066591  0.39015360  0.44268989    -0.80000
O1921       O  0.60241728  0.38297603  0.41336219    -1.90500
Cd1922     Cd  0.58172444  0.40007995  0.44632120     1.59900
O1923       O  0.67463789  0.40170344  0.38130171    -0.80000
O1924       O  0.53557904  0.38290137  0.41380989    -0.78600
C1925       C  0.61218652  0.39931265  0.31129960     0.83900
C1926       C  0.59353940  0.30475405  0.41169962     0.83600
O1927       O  0.53103898  0.34042140  0.38122464    -0.77600
C1928       C  0.59250207  0.37870878  0.01937428     0.84400
O1929       O  0.59372643  0.37165588  0.32549326    -0.77700
C1930       C  0.68602358  0.39689769  0.41171954     0.84500
C1931       C  0.65663124  0.45685318  0.45616086     0.84800
O1932       O  0.66412069  0.45156912  0.42344774    -0.80100
O1933       O  0.64763595  0.00632049  0.30179103    -0.77600
C1934       C  0.54952164  0.46969800  0.32833522     0.83400
O1935       O  0.63109382  0.08852306  0.24876994    -0.78700
O1936       O  0.55863246  0.05670291  0.36026348    -0.80200
O1937       O  0.64853543  0.04744020  0.41787274    -0.80000
O1938       O  0.68557486  0.05134812  0.33089156    -0.78600
Zn1939     Zn  0.61276022  0.01750987  0.29543142     1.55700
O1940       O  0.60037360  0.04322324  0.42172706    -0.80000
Cd1941     Cd  0.65685902  0.06815103  0.36381036     1.59700
Cd1942     Cd  0.61244252  0.08061865  0.30272901     1.59600
O1943       O  0.65395248  0.11108020  0.38275695    -0.80000
O1944       O  0.61844983  0.04891071  0.33144177    -1.90500
Cd1945     Cd  0.58433966  0.03432183  0.36747061     1.59900
O1946       O  0.62473589  0.11796231  0.33785829    -0.80000
O1947       O  0.55417364  0.48726521  0.35751443    -0.78600
C1948       C  0.62516538  0.06418172  0.22850927     0.83900
C1949       C  0.67695915  0.02526674  0.31079108     0.83600
O1950       O  0.56896833  0.47841621  0.30056755    -0.77600
C1951       C  0.62533573  0.04565251  0.43738405     0.84400
O1952       O  0.61665844  0.03682935  0.24320968    -0.77700
C1953       C  0.63752073  0.12415711  0.37070312     0.84500
C1954       C  0.54959284  0.06301889  0.32913949     0.84800
O1955       O  0.56458477  0.06619995  0.29829094    -0.80100
O1956       O  0.56796767  0.07549842  0.05206442    -0.77600
C1957       C  0.67601441  0.13826257  0.06031089     0.83400
O1958       O  0.63445521  0.53125158  0.49887825    -0.78700
O1959       O  0.65502485  0.03104315  0.13347982    -0.80200
O1960       O  0.60057120  0.04180948  0.17108812    -0.80000
O1961       O  0.55261671  0.04896131  0.10708158    -0.78600
Zn1962     Zn  0.61205694  0.08099509  0.04566621     1.55700
O1963       O  0.64680491  0.08786088  0.16788642    -0.80000
Cd1964     Cd  0.58477289  0.03432497  0.11661067     1.59700
Cd1965     Cd  0.61485495  0.51913035  0.05217084     1.59600
O1966       O  0.56161897  0.48636995  0.10808922    -0.80000
O1967       O  0.61891630  0.05603020  0.08117259    -1.90500
Cd1968     Cd  0.65682850  0.07617356  0.11409095     1.59900
O1969       O  0.56727581  0.48496265  0.04574229    -0.80000
O1970       O  0.68505432  0.12157947  0.08111340    -0.78600
C1971       C  0.62632751  0.04798263  0.47870298     0.83900
C1972       C  0.54805681  0.06303308  0.07918305     0.83600
O1973       O  0.64661477  0.12721382  0.05102007    -0.77600
C1974       C  0.62442772  0.06539594  0.18712083     0.84400
O1975       O  0.61586534  0.06533571  0.49347906    -0.77700
C1976       C  0.55217127  0.47222283  0.07618837     0.84500
C1977       C  0.63948855  0.50152782  0.12122972     0.84800
O1978       O  0.62746825  0.49471547  0.08795925    -0.80100
O1979       O  0.86454192  0.34542338  0.29802126    -0.77600
C1980       C  0.93047169  0.44463611  0.32551906     0.83400
O1981       O  0.96135501  0.35826657  0.24552431    -0.78700
O1982       O  0.50570606  0.42922286  0.35899399    -0.80200
O1983       O  0.90248850  0.34691896  0.41489050    -0.80000
O1984       O  0.86946914  0.30766173  0.33020719    -0.78600
Zn1985     Zn  0.91086228  0.37985090  0.29255198     1.55700
O1986       O  0.94808451  0.39346492  0.41885393    -0.80000
Cd1987     Cd  0.91532138  0.33623841  0.36237054     1.59700
Cd1988     Cd  0.47277811  0.37644876  0.30019258     1.59600
O1989       O  0.96083510  0.33894708  0.38284484    -0.80000
O1990       O  0.93578746  0.37300116  0.32850405    -1.90500
Cd1991     Cd  0.95756554  0.40740858  0.36442780     1.59900
O1992       O  0.49609284  0.36189894  0.33554288    -0.80000
O1993       O  0.94495292  0.44032839  0.35319596    -0.78600
C1994       C  0.94415886  0.36595487  0.22537582     0.83900
C1995       C  0.85287136  0.31648661  0.30890326     0.83600
O1996       O  0.91678550  0.42416783  0.29879070    -0.77600
C1997       C  0.92429564  0.36998778  0.43442087     0.84400
O1998       O  0.92632685  0.37576627  0.24032148    -0.77700
C1999       C  0.48995549  0.35228458  0.36969534     0.84500
C2000       C  0.51991864  0.43916896  0.32754408     0.84800
O2001       O  0.50753348  0.42410014  0.29658805    -0.80100
O2002       O  0.01337154  0.42275519  0.04808019    -0.77600
C2003       C  0.96049181  0.31340321  0.05200987     0.83400
O2004       O  0.90107951  0.36252649  0.49607092    -0.78700
O2005       O  0.87996617  0.33856801  0.12932968    -0.80200
O2006       O  0.94925394  0.39245385  0.16908063    -0.80000
O2007       O  0.50424427  0.43790473  0.10483387    -0.78600
Zn2008     Zn  0.97296523  0.37969676  0.04088401     1.55700
O2009       O  0.94418733  0.34419155  0.16363096    -0.80000
Cd2010     Cd  0.95750788  0.40835844  0.11501799     1.59700
Cd2011     Cd  0.90999998  0.38097581  0.05064267     1.59600
O2012       O  0.93578746  0.43472242  0.10905214    -0.80000
O2013       O  0.94230939  0.37473936  0.07790218    -1.90500
Cd2014     Cd  0.92276100  0.33684084  0.10949968     1.59900
O2015       O  0.92541744  0.42873967  0.04705074    -0.80000
O2016       O  0.93685415  0.30781317  0.07490724    -0.78600
C2017       C  0.92557098  0.36959480  0.47568375     0.83900
C2018       C  0.52189558  0.44237333  0.07605423     0.83600
O2019       O  0.98023624  0.34162362  0.04052833    -0.77600
C2020       C  0.94650654  0.36730636  0.18398591     0.84400
O2021       O  0.95325636  0.37856509  0.49019803    -0.77700
C2022       C  0.92934953  0.44386997  0.07815627     0.84500
C2023       C  0.86749673  0.35590307  0.11915395     0.84800
O2024       O  0.87385486  0.36987278  0.08726494    -0.80100
O2025       O  0.98668664  0.12857113  0.30508674    -0.77600
C2026       C  0.52026159  0.06447126  0.33009745     0.83400
O2027       O  0.90203428  0.53011749  0.24875326    -0.78700
O2028       O  0.93587013  0.48886239  0.35785329    -0.80200
O2029       O  0.94599194  0.08818330  0.41767458    -0.80000
O2030       O  0.94108676  0.12118700  0.33219950    -0.78600
Zn2031     Zn  0.97392590  0.08211134  0.29672667     1.55700
O2032       O  0.94647801  0.04243404  0.42170166    -0.80000
Cd2033     Cd  0.92372541  0.07540063  0.36421047     1.59700
Cd2034     Cd  0.91017973  0.51854984  0.30245772     1.59600
O2035       O  0.88130117  0.02927678  0.38360689    -0.80000
O2036       O  0.94214865  0.05625074  0.33136313    -1.90500
Cd2037     Cd  0.95634575  0.03644967  0.36756048     1.59900
O2038       O  0.87408971  0.49280011  0.33905873    -0.80000
O2039       O  0.50353235  0.05384891  0.36000292    -0.78600
C2040       C  0.92650930  0.04879528  0.22907616     0.83900
C2041       C  0.96764703  0.13892826  0.31336757     0.83600
O2042       O  0.01159148  0.07485968  0.30176662    -0.77600
C2043       C  0.94614322  0.06604058  0.43731206     0.84400
O2044       O  0.95396481  0.06753069  0.24435081    -0.77700
C2045       C  0.86840321  0.49961504  0.37199523     0.84500
C2046       C  0.93025113  0.47451267  0.32598905     0.84800
O2047       O  0.92584865  0.48636487  0.29586670    -0.80100
O2048       O  0.91730129  0.48146455  0.05140822    -0.77600
C2049       C  0.85223595  0.02380947  0.06056427     0.83400
O2050       O  0.96197458  0.09002117  0.49872782    -0.78700
O2051       O  0.96090763  0.11126676  0.13350297    -0.80200
O2052       O  0.94917525  0.04663003  0.17230402    -0.80000
O2053       O  0.93990827  0.49047825  0.10928614    -0.78600
Zn2054     Zn  0.91074181  0.01903372  0.04538173     1.55700
O2055       O  0.90319594  0.04694084  0.16776165    -0.80000
Cd2056     Cd  0.95599996  0.03732369  0.11817679     1.59700
Cd2057     Cd  0.47309965  0.08272684  0.05298621     1.59600
O2058       O  0.50401197  0.05882883  0.11079103    -0.80000
O2059       O  0.93555985  0.05068503  0.08133376    -1.90500
Cd2060     Cd  0.91510986  0.06812928  0.11389665     1.59900
O2061       O  0.50653736  0.06813541  0.04881847    -0.80000
O2062       O  0.86856829  0.04955049  0.08167826    -0.78600
C2063       C  0.94427782  0.06523327  0.47859478     0.83900
C2064       C  0.92837156  0.47329465  0.07950268     0.83600
O2065       O  0.86439617  0.00679339  0.05009833    -0.77600
C2066       C  0.92553579  0.04699087  0.18766795     0.84400
O2067       O  0.92608414  0.03785339  0.49344247    -0.77700
C2068       C  0.51836664  0.06392056  0.07925010     0.84500
C2069       C  0.49048232  0.12523368  0.12160298     0.84800
O2070       O  0.49732711  0.11999172  0.08852295    -0.80100
O2071       O  0.69611738  0.00983902  0.96979150    -0.77600
C2072       C  0.76153867  0.10884201  0.99653146     0.83400
O2073       O  0.79068096  0.02104023  0.91610502    -0.78700
O2074       O  0.84122182  0.09405463  0.52727723    -0.80200
O2075       O  0.73689060  0.01298276  0.58580920    -0.80000
O2076       O  0.70224527  0.47213069  0.50009651    -0.78600
Zn2077     Zn  0.74236909  0.04415986  0.96421128     1.55700
O2078       O  0.78342675  0.05895249  0.58924896    -0.80000
Cd2079     Cd  0.74811205  0.00139947  0.53291623     1.59700
Cd2080     Cd  0.80355963  0.03986679  0.97006850     1.59600
O2081       O  0.79376710  0.00448222  0.55277074    -0.80000
O2082       O  0.76829841  0.03836531  0.99971205    -1.90500
Cd2083     Cd  0.79241045  0.07370252  0.53450540     1.59900
O2084       O  0.82765815  0.02543885  0.00404030    -0.80000
O2085       O  0.77827377  0.10633171  0.52318905    -0.78600
C2086       C  0.77428684  0.02991074  0.89633240     0.83900
C2087       C  0.68516487  0.48071505  0.97923134     0.83600
O2088       O  0.74729447  0.08755425  0.97084053    -0.77600
C2089       C  0.75955736  0.03560502  0.60511300     0.84400
O2090       O  0.75728299  0.04052034  0.91166099    -0.77700
C2091       C  0.82249867  0.01732355  0.53872631     0.84500
C2092       C  0.85406766  0.10157805  0.49474909     0.84800
O2093       O  0.83865694  0.08677773  0.96485229    -0.80100
O2094       O  0.84530178  0.09137271  0.72283159    -0.77600
C2095       C  0.80066002  0.48282002  0.72659092     0.83400
O2096       O  0.73602020  0.02773173  0.66644001    -0.78700
O2097       O  0.71355636  0.00348532  0.79896996    -0.80200
O2098       O  0.77743891  0.05587752  0.84021860    -0.80000
O2099       O  0.83686109  0.10359213  0.78154962    -0.78600
Zn2100     Zn  0.80745958  0.04722998  0.71408845     1.55700
O2101       O  0.77757648  0.00997453  0.83471899    -0.80000
Cd2102     Cd  0.78925270  0.07343244  0.78712118     1.59700
Cd2103     Cd  0.74394691  0.04626649  0.72071820     1.59600
O2104       O  0.76905504  0.10099795  0.77856879    -0.80000
O2105       O  0.77570655  0.04018369  0.74933522    -1.90500
Cd2106     Cd  0.75702576  0.00157395  0.78016669     1.59900
O2107       O  0.75915500  0.09407289  0.71648124    -0.80000
O2108       O  0.77477723  0.47370268  0.74698627    -0.78600
C2109       C  0.76083350  0.03523014  0.64651155     0.83900
C2110       C  0.85385227  0.10997639  0.75177811     0.83600
O2111       O  0.81880155  0.01217032  0.71769892    -0.77600
C2112       C  0.77677125  0.03161204  0.85504933     0.84400
O2113       O  0.78846930  0.04467593  0.66167570    -0.77700
C2114       C  0.76346399  0.11000726  0.74702206     0.84500
C2115       C  0.70091432  0.02067201  0.78832792     0.84800
O2116       O  0.70735690  0.03452651  0.75637796    -0.80100
O2117       O  0.82018102  0.29242146  0.96965949    -0.77600
C2118       C  0.84777198  0.21885315  0.99825103     0.83400
O2119       O  0.73571981  0.19509249  0.91500642    -0.78700
O2120       O  0.75941175  0.14986081  0.52846521    -0.80200
O2121       O  0.77863767  0.25352314  0.58420214    -0.80000
O2122       O  0.77505543  0.28662194  0.49657411    -0.78600
Zn2123     Zn  0.80732589  0.24516875  0.96465653     1.55700
O2124       O  0.77786928  0.20713145  0.58930864    -0.80000
Cd2125     Cd  0.75695488  0.24135006  0.53015373     1.59700
Cd2126     Cd  0.74215881  0.18330490  0.96934551     1.59600
O2127       O  0.71365772  0.19632787  0.54928816    -0.80000
O2128       O  0.77437334  0.22052872  0.99864069    -1.90500
Cd2129     Cd  0.78481497  0.19784144  0.53569978     1.59900
O2130       O  0.70468873  0.15933769  0.00457512    -0.80000
O2131       O  0.82983086  0.20765859  0.52706819    -0.78600
C2132       C  0.76082698  0.21315436  0.89594537     0.83900
C2133       C  0.80142747  0.30345356  0.97704117     0.83600
O2134       O  0.84272937  0.23403980  0.97184392    -0.77600
C2135       C  0.77839671  0.23134616  0.60429952     0.84400
O2136       O  0.78820762  0.23077304  0.91194279    -0.77700
C2137       C  0.69965369  0.16667208  0.53757028     0.84500
C2138       C  0.75882008  0.13738495  0.49649285     0.84800
O2139       O  0.75738830  0.15034713  0.96561667    -0.80100
O2140       O  0.75053704  0.14703684  0.71999729    -0.77600
C2141       C  0.68663994  0.19139902  0.72736690     0.83400
O2142       O  0.79465900  0.25616860  0.66522906    -0.78700
O2143       O  0.79453813  0.27797177  0.79981188    -0.80200
O2144       O  0.78448933  0.21307690  0.83902374    -0.80000
O2145       O  0.77800580  0.15891802  0.77500513    -0.78600
Zn2146     Zn  0.74447355  0.18507333  0.71313474     1.55700
O2147       O  0.73804372  0.21259784  0.83467754    -0.80000
Cd2148     Cd  0.79238172  0.20543279  0.78457601     1.59700
Cd2149     Cd  0.80686996  0.24944852  0.71904450     1.59600
O2150       O  0.84062281  0.22994642  0.77676750    -0.80000
O2151       O  0.77004346  0.21715907  0.74837034    -1.90500
Cd2152     Cd  0.74943755  0.23435551  0.78102269     1.59900
O2153       O  0.84167190  0.23647208  0.71436935    -0.80000
O2154       O  0.70343731  0.21710713  0.74834840    -0.78600
C2155       C  0.77710581  0.23105107  0.64560298     0.83900
C2156       C  0.76373608  0.14013693  0.74706540     0.83600
O2157       O  0.69801601  0.17348276  0.71773972    -0.77600
C2158       C  0.76039643  0.21249898  0.85446792     0.84400
O2159       O  0.75955829  0.20371993  0.66097946    -0.77700
C2160       C  0.85453815  0.23410369  0.74500307     0.84500
C2161       C  0.82378942  0.29249821  0.78702614     0.84800
O2162       O  0.83030498  0.28737024  0.75372135    -0.80100
O2163       O  0.90313113  0.24257806  0.71668455    -0.77600
C2164       C  0.51148226  0.30447748  0.72455241     0.83400
O2165       O  0.96149075  0.18753916  0.66730850    -0.78700
O2166       O  0.99024713  0.19739978  0.80064052    -0.80200
O2167       O  0.93684012  0.21615504  0.83987497    -0.80000
O2168       O  0.88973780  0.22164221  0.77484988    -0.78600
Zn2169     Zn  0.94640873  0.24519886  0.70990925     1.55700
O2170       O  0.98726226  0.25615290  0.83783639    -0.80000
Cd2171     Cd  0.92000175  0.20526958  0.78594565     1.59700
Cd2172     Cd  0.94594192  0.18333815  0.72250187     1.59600
O2173       O  0.89310639  0.15653213  0.78178541    -0.80000
O2174       O  0.95385953  0.22300533  0.74907979    -1.90500
Cd2175     Cd  0.99305546  0.24344571  0.78159434     1.59900
O2176       O  0.89789734  0.15167405  0.71981828    -0.80000
O2177       O  0.52050012  0.28967874  0.74868699    -0.78600
C2178       C  0.95306788  0.20317297  0.64568511     0.83900
C2179       C  0.88436491  0.23329332  0.74520732     0.83600
O2180       O  0.98291504  0.29085840  0.71090587    -0.77600
C2181       C  0.96247804  0.23670675  0.85672464     0.84400
O2182       O  0.94601830  0.22366282  0.65928129    -0.77700
C2183       C  0.88332108  0.14059973  0.75094482     0.84500
C2184       C  0.97225784  0.16734172  0.79075331     0.84800
O2185       O  0.95733221  0.15931342  0.75927542    -0.80100
O2186       O  0.87829024  0.19765353  0.52345053    -0.77600
C2187       C  0.94835119  0.19685134  0.60454856     0.83400
O2188       O  0.98582803  0.28675723  0.01583489    -0.78700
O2189       O  0.98885895  0.17216976  0.49514003    -0.80200
O2190       O  0.88784295  0.14963137  0.96593237    -0.80000
O2191       O  0.89217935  0.22029453  0.96726899    -0.78600
Zn2192     Zn  0.92338997  0.21475842  0.53821975     1.55700
O2193       O  0.90706523  0.13612010  0.51688170    -0.80000
Cd2194     Cd  0.91807179  0.19708486  0.96126189     1.59700
Cd2195     Cd  0.98709851  0.24749491  0.98160145     1.59600
O2196       O  0.93821889  0.20781056  0.91047372    -0.80000
O2197       O  0.94905908  0.21003082  0.50182427    -1.90500
Cd2198     Cd  0.95323805  0.17527156  0.52549370     1.59900
O2199       O  0.98173345  0.25507811  0.92190051    -0.80000
O2200       O  0.96310648  0.18593894  0.58460853    -0.78600
C2201       C  0.96257985  0.28534592  0.53656317     0.83900
C2202       C  0.87412712  0.21238418  0.49604960     0.83600
O2203       O  0.92867532  0.20378339  0.58942079    -0.77600
C2204       C  0.88519011  0.13016797  0.99182642     0.84400
O2205       O  0.93818808  0.25893997  0.54436192    -0.77700
C2206       C  0.96152506  0.23386191  0.89861667     0.84500
C2207       C  0.51185358  0.19461187  0.97647990     0.84800
O2208       O  0.51591875  0.22355779  0.97487812    -0.80100
O2209       O  0.81438722  0.34076530  0.63447988    -0.77600
C2210       C  0.71651399  0.30424713  0.66218323     0.83400
O2211       O  0.80047516  0.42328390  0.58166582    -0.78700
O2212       O  0.72643038  0.39131566  0.69208709    -0.80200
O2213       O  0.81523619  0.38045265  0.75047579    -0.80000
O2214       O  0.85257970  0.38630971  0.66249846    -0.78600
Zn2215     Zn  0.77952251  0.35179350  0.62864560     1.55700
O2216       O  0.76797384  0.37813854  0.75472872    -0.80000
Cd2217     Cd  0.82407364  0.40229430  0.69683409     1.59700
Cd2218     Cd  0.78144259  0.41626793  0.63548489     1.59600
O2219       O  0.82140975  0.44514600  0.71646656    -0.80000
O2220       O  0.78597763  0.38365385  0.66425332    -1.90500
Cd2221     Cd  0.75208298  0.36915368  0.70029778     1.59900
O2222       O  0.79417925  0.45391742  0.67073181    -0.80000
O2223       O  0.72176249  0.32200790  0.69129105    -0.78600
C2224       C  0.79346776  0.39846401  0.56172594     0.83900
C2225       C  0.84382625  0.36026752  0.64230885     0.83600
O2226       O  0.73557137  0.31273981  0.63403221    -0.77600
C2227       C  0.79237559  0.37919079  0.77025738     0.84400
O2228       O  0.78370130  0.37098073  0.57667836    -0.75900
C2229       C  0.80597876  0.45915694  0.70411570     0.84500
C2230       C  0.71793947  0.39811600  0.66088526     0.84800
O2231       O  0.73371727  0.40235425  0.63041788    -0.80100
O2232       O  0.73611688  0.40876898  0.88508714    -0.77600
C2233       C  0.84477536  0.47072395  0.89439218     0.83400
O2234       O  0.79907046  0.36183001  0.83131222    -0.78700
O2235       O  0.82240690  0.36191830  0.96629862    -0.80200
O2236       O  0.76820502  0.37619919  0.50481878    -0.80000
O2237       O  0.72111235  0.38383442  0.94100696    -0.78600
Zn2238     Zn  0.78041339  0.41407228  0.87965238     1.55700
O2239       O  0.81601489  0.42041647  0.50084353    -0.80000
Cd2240     Cd  0.75235792  0.36824552  0.95069200     1.59700
Cd2241     Cd  0.78114477  0.35029393  0.88590696     1.59600
O2242       O  0.72695691  0.32025440  0.94381331    -0.80000
O2243       O  0.78654647  0.38802774  0.91468381    -1.90500
Cd2244     Cd  0.82500057  0.40766682  0.94700947     1.59900
O2245       O  0.73299694  0.31698374  0.88175194    -0.80000
O2246       O  0.85365773  0.45329915  0.91404103    -0.78600
C2247       C  0.79313409  0.38054910  0.81174916     0.83900
C2248       C  0.71624916  0.39693174  0.91235890     0.83600
O2249       O  0.81528738  0.46024733  0.88604009    -0.77600
C2250       C  0.79282622  0.39920832  0.52039120     0.84400
O2251       O  0.78450504  0.39915811  0.82716712    -0.77700
C2252       C  0.71739115  0.30550235  0.91230469     0.84500
C2253       C  0.80675207  0.33231910  0.95419533     0.84800
O2254       O  0.79429794  0.32545096  0.92107084    -0.80100
O2255       O  0.67875904  0.25596442  0.88501990    -0.77600
C2256       C  0.63236501  0.14810695  0.89258429     0.83400
O2257       O  0.56831348  0.19345741  0.83071801    -0.78700
O2258       O  0.54519373  0.16943568  0.96289891    -0.80200
O2259       O  0.61409963  0.22470043  0.50461951    -0.80000
O2260       O  0.66876245  0.27167703  0.94077661    -0.78600
Zn2261     Zn  0.63966437  0.21245206  0.87837552     1.55700
O2262       O  0.60961265  0.17653855  0.49990656    -0.80000
Cd2263     Cd  0.62189439  0.24050033  0.95040187     1.59700
Cd2264     Cd  0.57635836  0.21220333  0.88479556     1.59600
O2265       O  0.59837741  0.26519226  0.94289253    -0.80000
O2266       O  0.60814863  0.20633615  0.91390979    -1.90500
Cd2267     Cd  0.58903377  0.16781521  0.94516671     1.59900
O2268       O  0.59134408  0.25997331  0.88034891    -0.80000
O2269       O  0.60652840  0.13935989  0.91292101    -0.78600
C2270       C  0.59313217  0.20062360  0.81098821     0.83900
C2271       C  0.68683858  0.27593822  0.91245305     0.83600
O2272       O  0.65044417  0.17722473  0.88289069    -0.77600
C2273       C  0.61185885  0.19983674  0.51983912     0.84400
O2274       O  0.62060453  0.20963649  0.82626575    -0.77700
C2275       C  0.59373565  0.27485283  0.91124604     0.84500
C2276       C  0.53314526  0.18715605  0.95222185     0.84800
O2277       O  0.53971212  0.20085100  0.92017194    -0.80100
O2278       O  0.53063264  0.17824810  0.63452615    -0.77600
C2279       C  0.59594678  0.27733858  0.66156281     0.83400
O2280       O  0.62808346  0.19206928  0.58117662    -0.78700
O2281       O  0.67248578  0.26449948  0.69354771    -0.80200
O2282       O  0.57020504  0.17906935  0.74982051    -0.80000
O2283       O  0.53662678  0.14024994  0.66442651    -0.78600
Zn2284     Zn  0.57705380  0.21269795  0.62866324     1.55700
O2285       O  0.61592241  0.22555583  0.75451592    -0.80000
Cd2286     Cd  0.58267191  0.16899647  0.69685697     1.59700
Cd2287     Cd  0.63999137  0.21061579  0.63564319     1.59600
O2288       O  0.62817368  0.17149855  0.71713959    -0.80000
O2289       O  0.60282701  0.20650261  0.66409397    -1.90500
Cd2290     Cd  0.62423428  0.24087483  0.70022817     1.59900
O2291       O  0.66412917  0.19716015  0.67124606    -0.80000
O2292       O  0.60991172  0.27295127  0.68983745    -0.78600
C2293       C  0.61014824  0.19897699  0.56125678     0.83900
C2294       C  0.51949379  0.14907159  0.64405256     0.83600
O2295       O  0.58296321  0.25699091  0.63457822    -0.77600
C2296       C  0.59225191  0.20163360  0.76972203     0.84400
O2297       O  0.59203865  0.20836529  0.57636465    -0.77700
C2298       C  0.65758786  0.18614693  0.70478934     0.84500
C2299       C  0.68669377  0.27384550  0.66195513     0.84800
O2300       O  0.67425874  0.25829190  0.63129377    -0.80100
O2301       O  0.65266879  0.46156325  0.63323357    -0.77600
C2302       C  0.68820360  0.39877476  0.66139076     0.83400
O2303       O  0.56936199  0.36320648  0.58072002    -0.78700
O2304       O  0.60236840  0.32264062  0.69241697    -0.80200
O2305       O  0.61366837  0.42263502  0.75052790    -0.80000
O2306       O  0.60906351  0.45577702  0.66415027    -0.78600
Zn2307     Zn  0.64122366  0.41541649  0.62776858     1.55700
O2308       O  0.61575566  0.37769970  0.75418784    -0.80000
Cd2309     Cd  0.59175987  0.40988053  0.69666033     1.59700
Cd2310     Cd  0.57726903  0.35253102  0.63484373     1.59600
O2311       O  0.54967225  0.36334460  0.71638311    -0.80000
O2312       O  0.60979486  0.39029073  0.66357283    -1.90500
Cd2313     Cd  0.62414653  0.37056763  0.69988748     1.59900
O2314       O  0.53953054  0.32808709  0.66922627    -0.80000
O2315       O  0.67089052  0.38685561  0.69064278    -0.78600
C2316       C  0.59386510  0.38098037  0.56070006     0.83900
C2317       C  0.63463584  0.47268303  0.64332159     0.83600
O2318       O  0.67982913  0.40978688  0.63342954    -0.77600
C2319       C  0.61454962  0.40076147  0.76999369     0.84400
O2320       O  0.62148131  0.39951435  0.57565339    -0.77700
C2321       C  0.53515585  0.33408204  0.70314226     0.84500
C2322       C  0.59598145  0.30742513  0.66113065     0.84800
O2323       O  0.59138964  0.31874945  0.63061638    -0.80100
O2324       O  0.58306379  0.31324243  0.88323080    -0.77600
C2325       C  0.51916967  0.35765463  0.89198980     0.83400
O2326       O  0.62977354  0.42374960  0.83203487    -0.78700
O2327       O  0.62680347  0.44322333  0.96703541    -0.80200
O2328       O  0.61625614  0.37874740  0.50382645    -0.80000
O2329       O  0.60533375  0.32209361  0.94131129    -0.78600
Zn2330     Zn  0.57740797  0.35172843  0.87702994     1.55700
O2331       O  0.56976578  0.37806206  0.49966494    -0.80000
Cd2332     Cd  0.62260363  0.36911998  0.94982610     1.59700
Cd2333     Cd  0.64050204  0.41543076  0.88608254     1.59600
O2334       O  0.67066937  0.39016224  0.94268948    -0.80000
O2335       O  0.60241696  0.38297731  0.91336190    -1.90500
Cd2336     Cd  0.58172318  0.40007935  0.94632226     1.59900
O2337       O  0.67463736  0.40170476  0.88129960    -0.80000
O2338       O  0.53557728  0.38290088  0.91381201    -0.78600
C2339       C  0.61218421  0.39931112  0.81129855     0.83900
C2340       C  0.59354407  0.30475807  0.91170083     0.83600
O2341       O  0.53103841  0.34042212  0.88122513    -0.77600
C2342       C  0.59250114  0.37870840  0.51937404     0.84400
O2343       O  0.59372533  0.37165494  0.82549291    -0.77700
C2344       C  0.68602506  0.39690242  0.91171735     0.84500
C2345       C  0.65662954  0.45685399  0.95615995     0.84800
O2346       O  0.66411867  0.45157069  0.92344614    -0.80100
O2347       O  0.64763578  0.00632082  0.80178927    -0.77600
C2348       C  0.54952274  0.46969744  0.82833590     0.83400
O2349       O  0.63109273  0.08852279  0.74876894    -0.78700
O2350       O  0.55862894  0.05669918  0.86026294    -0.80200
O2351       O  0.64853507  0.04744038  0.91787136    -0.80000
O2352       O  0.68557460  0.05134838  0.83088987    -0.78600
Zn2353     Zn  0.61276000  0.01751028  0.79543073     1.55700
O2354       O  0.60037429  0.04322565  0.92172637    -0.80000
Cd2355     Cd  0.65685857  0.06815129  0.86380907     1.59700
Cd2356     Cd  0.61244190  0.08061942  0.80272853     1.59600
O2357       O  0.65395117  0.11107989  0.88275689    -0.80000
O2358       O  0.61844923  0.04891117  0.83144076    -1.90500
Cd2359     Cd  0.58433936  0.03432140  0.86747044     1.59900
O2360       O  0.62473599  0.11796355  0.83785770    -0.80000
O2361       O  0.55417548  0.48726386  0.85751544    -0.78600
C2362       C  0.62516507  0.06418120  0.72850864     0.83900
C2363       C  0.67695893  0.02526703  0.81078933     0.83600
O2364       O  0.56896856  0.47841659  0.80056661    -0.77600
C2365       C  0.62533627  0.04565401  0.93738311     0.84400
O2366       O  0.61665837  0.03682930  0.74320932    -0.77700
C2367       C  0.63751998  0.12415746  0.87070300     0.84500
C2368       C  0.54959054  0.06301721  0.82914037     0.84800
O2369       O  0.56458406  0.06620121  0.79829140    -0.80100
O2370       O  0.56796900  0.07549942  0.55206403    -0.77600
C2371       C  0.67601586  0.13826140  0.56031207     0.83400
O2372       O  0.63445791  0.53125468  0.99887716    -0.78700
O2373       O  0.65502698  0.03104098  0.63347598    -0.80200
O2374       O  0.60057042  0.04180968  0.67108767    -0.80000
O2375       O  0.55261783  0.04896272  0.60708143    -0.78600
Zn2376     Zn  0.61205785  0.08099507  0.54566657     1.55700
O2377       O  0.64680699  0.08785833  0.66788586    -0.80000
Cd2378     Cd  0.58477250  0.03432512  0.61661051     1.59700
Cd2379     Cd  0.61485066  0.51912870  0.55217102     1.59600
O2380       O  0.56161635  0.48637015  0.60808835    -0.80000
O2381       O  0.61891607  0.05602964  0.58117277    -1.90500
Cd2382     Cd  0.65682947  0.07617121  0.61408948     1.59900
O2383       O  0.56727092  0.48496486  0.54574081    -0.80000
O2384       O  0.68505572  0.12157748  0.58111322    -0.78600
C2385       C  0.62632817  0.04798440  0.97870205     0.83900
C2386       C  0.54805797  0.06303406  0.57918351     0.83600
O2387       O  0.64661637  0.12721336  0.55102173    -0.77600
C2388       C  0.62442827  0.06539537  0.68712019     0.84400
O2389       O  0.61586464  0.06533602  0.99347851    -0.77700
C2390       C  0.55216708  0.47222435  0.57618784     0.84500
C2391       C  0.63948541  0.50152492  0.62122866     0.84800
O2392       O  0.62745917  0.49471142  0.58796123    -0.80100
O2393       O  0.86454344  0.34542454  0.79801582    -0.77600
C2394       C  0.93047069  0.44463637  0.82551501     0.83400
O2395       O  0.96135641  0.35826632  0.74552337    -0.78700
O2396       O  0.50570640  0.42922270  0.85899329    -0.80200
O2397       O  0.90248742  0.34692331  0.91488922    -0.80000
O2398       O  0.86946819  0.30766402  0.83020775    -0.78600
Zn2399     Zn  0.91086368  0.37985210  0.79254862     1.55700
O2400       O  0.94808482  0.39346778  0.91885196    -0.80000
Cd2401     Cd  0.91532069  0.33624113  0.86237052     1.59700
Cd2402     Cd  0.47277889  0.37644788  0.80019180     1.59600
O2403       O  0.96083422  0.33895008  0.88284674    -0.80000
O2404       O  0.93578804  0.37300214  0.82850178    -1.90500
Cd2405     Cd  0.95756583  0.40740988  0.86442501     1.59900
O2406       O  0.49609121  0.36189566  0.83554270    -0.80000
O2407       O  0.94495294  0.44032939  0.85319109    -0.78600
C2408       C  0.94416152  0.36595563  0.72537463     0.83900
C2409       C  0.85287155  0.31648851  0.80890120     0.83600
O2410       O  0.91678473  0.42416793  0.79878648    -0.77600
C2411       C  0.92429575  0.36999190  0.93441931     0.84400
O2412       O  0.92632986  0.37576797  0.74031978    -0.77700
C2413       C  0.48995419  0.35228438  0.86969641     0.84500
C2414       C  0.51992003  0.43916822  0.82754333     0.84800
O2415       O  0.50753581  0.42409899  0.79658786    -0.80100
O2416       O  0.01336991  0.42275462  0.54808172    -0.77600
C2417       C  0.96049341  0.31340221  0.55201210     0.83400
O2418       O  0.90108000  0.36253045  0.99606989    -0.78700
O2419       O  0.87996639  0.33856650  0.62933139    -0.80200
O2420       O  0.94925475  0.39245375  0.66907979    -0.80000
O2421       O  0.50423832  0.43790832  0.60483041    -0.78600
Zn2422     Zn  0.97296500  0.37969511  0.54088602     1.55700
O2423       O  0.94418934  0.34419183  0.66363048    -0.80000
Cd2424     Cd  0.95750371  0.40835760  0.61501738     1.59700
Cd2425     Cd  0.90999870  0.38097284  0.55064288     1.59600
O2426       O  0.93577713  0.43471616  0.60905424    -0.80000
O2427       O  0.94230851  0.37473761  0.57790307    -1.90500
Cd2428     Cd  0.92276113  0.33683916  0.60950071     1.59900
O2429       O  0.92541474  0.42873711  0.54705142    -0.80000
O2430       O  0.93685532  0.30781177  0.57490914    -0.78600
C2431       C  0.92557085  0.36959859  0.97568240     0.83900
C2432       C  0.52189154  0.44237498  0.57605233     0.83600
O2433       O  0.98023765  0.34162275  0.54053117    -0.77600
C2434       C  0.94650866  0.36730710  0.68398502     0.84400
O2435       O  0.95325664  0.37856828  0.99019624    -0.77700
C2436       C  0.92934376  0.44386615  0.57815790     0.84500
C2437       C  0.86749549  0.35589985  0.61915365     0.84800
O2438       O  0.87385235  0.36986757  0.58726343    -0.80100
O2439       O  0.98668634  0.12857130  0.80508916    -0.77600
C2440       C  0.52025902  0.06446930  0.83009698     0.83400
O2441       O  0.90203338  0.53011983  0.74875228    -0.78700
O2442       O  0.93586469  0.48885979  0.85785123    -0.80200
O2443       O  0.94599087  0.08818198  0.91767396    -0.80000
O2444       O  0.94108633  0.12118771  0.83220079    -0.78600
Zn2445     Zn  0.97392466  0.08211141  0.79672766     1.55700
O2446       O  0.94647337  0.04243088  0.92170061    -0.80000
Cd2447     Cd  0.92372401  0.07540070  0.86421028     1.59700
Cd2448     Cd  0.91017683  0.51855031  0.80245655     1.59600
O2449       O  0.88129974  0.02927753  0.88360678    -0.80000
O2450       O  0.94214635  0.05625022  0.83136275    -1.90500
Cd2451     Cd  0.95634156  0.03644687  0.86755935     1.59900
O2452       O  0.87408658  0.49280101  0.83905760    -0.80000
O2453       O  0.50352833  0.05384437  0.86000205    -0.78600
C2454       C  0.92650938  0.04879694  0.72907590     0.83900
C2455       C  0.96764699  0.13892889  0.81336951     0.83600
O2456       O  0.01158988  0.07485943  0.80176783    -0.77600
C2457       C  0.94614044  0.06603809  0.93731121     0.84400
O2458       O  0.95396457  0.06753156  0.74435133    -0.77700
C2459       C  0.86840133  0.49961599  0.87199473     0.84500
C2460       C  0.93024750  0.47451166  0.82598588     0.84800
O2461       O  0.92584504  0.48636460  0.79586447    -0.80100
O2462       O  0.91730101  0.48146402  0.55140797    -0.77600
C2463       C  0.85223865  0.02381083  0.56056399     0.83400
O2464       O  0.96197308  0.09001887  0.99872662    -0.78700
O2465       O  0.96090828  0.11126777  0.63350398    -0.80200
O2466       O  0.94917624  0.04663077  0.67230460    -0.80000
O2467       O  0.93990526  0.49047568  0.60928731    -0.78600
Zn2468     Zn  0.91074427  0.01903490  0.54538187     1.55700
O2469       O  0.90319706  0.04694173  0.66776059    -0.80000
Cd2470     Cd  0.95600022  0.03732236  0.61817761     1.59700
Cd2471     Cd  0.47310143  0.08272896  0.55298731     1.59600
O2472       O  0.50401177  0.05882613  0.61079070    -0.80000
O2473       O  0.93556212  0.05068570  0.58133434    -1.90500
Cd2474     Cd  0.91511180  0.06813025  0.61389614     1.59900
O2475       O  0.50654001  0.06813896  0.54881922    -0.80000
O2476       O  0.86857076  0.04955204  0.58167760    -0.78600
C2477       C  0.94427553  0.06523134  0.97859393     0.83900
C2478       C  0.92836834  0.47329226  0.57950300     0.83600
O2479       O  0.86439913  0.00679492  0.55009839    -0.77600
C2480       C  0.92553641  0.04699193  0.68766765     0.84400
O2481       O  0.92608101  0.03785151  0.99344187    -0.77700
C2482       C  0.51836788  0.06392147  0.57924939     0.84500
C2483       C  0.49048320  0.12523478  0.62160461     0.84800
O2484       O  0.49732840  0.11999329  0.58852472    -0.80100
O2485       O  0.69611767  0.50983824  0.46979579    -0.77600
C2486       C  0.76154168  0.60884215  0.49653371     0.83400
O2487       O  0.79068218  0.52104061  0.41610479    -0.78700
O2488       O  0.84121994  0.59405654  0.02727683    -0.80200
O2489       O  0.73688843  0.51298541  0.08580984    -0.80000
O2490       O  0.70224261  0.97213218  0.00009761    -0.78600
Zn2491     Zn  0.74236962  0.54415895  0.46421363     1.55700
O2492       O  0.78342539  0.55895423  0.08924903    -0.80000
Cd2493     Cd  0.74810959  0.50140130  0.03291704     1.59700
Cd2494     Cd  0.80356131  0.53986655  0.47006834     1.59600
O2495       O  0.79376444  0.50448288  0.05277149    -0.80000
O2496       O  0.76830009  0.53836420  0.49971229    -1.90500
Cd2497     Cd  0.79240842  0.57370387  0.03450499     1.59900
O2498       O  0.82766084  0.52543971  0.50404000    -0.80000
O2499       O  0.77827016  0.60633188  0.02318756    -0.78600
C2500       C  0.77428696  0.52991055  0.39633304     0.83900
C2501       C  0.68516637  0.98071387  0.47923280     0.83600
O2502       O  0.74729600  0.58755406  0.47084373    -0.77600
C2503       C  0.75955617  0.53560757  0.10511346     0.84400
O2504       O  0.75728269  0.54051920  0.41166261    -0.77700
C2505       C  0.82249589  0.51732289  0.03872677     0.84500
C2506       C  0.85406645  0.60157868  0.99474917     0.84800
O2507       O  0.83865768  0.58677781  0.46485241    -0.80100
O2508       O  0.84530136  0.59137300  0.22283309    -0.77600
C2509       C  0.80065844  0.98281965  0.22659092     0.83400
O2510       O  0.73601898  0.52773164  0.16644082    -0.78700
O2511       O  0.71355658  0.50348536  0.29897146    -0.80200
O2512       O  0.77743785  0.55587736  0.34021960    -0.80000
O2513       O  0.83685976  0.60359337  0.28155031    -0.78600
Zn2514     Zn  0.80745869  0.54723070  0.21408843     1.55700
O2515       O  0.77757709  0.50997533  0.33471930    -0.80000
Cd2516     Cd  0.78925142  0.57343240  0.28712202     1.59700
Cd2517     Cd  0.74394576  0.54626591  0.22071907     1.59600
O2518       O  0.76905174  0.60099603  0.27856941    -0.80000
O2519       O  0.77570606  0.54018386  0.24933566    -1.90500
Cd2520     Cd  0.75702583  0.50157446  0.28016746     1.59900
O2521       O  0.75915352  0.59407192  0.21648152    -0.80000
O2522       O  0.77477639  0.97370242  0.24698750    -0.78600
C2523       C  0.76083214  0.53523197  0.14651206     0.83900
C2524       C  0.85385140  0.60997713  0.25177958     0.83600
O2525       O  0.81879900  0.51216960  0.21769695    -0.77600
C2526       C  0.77677083  0.53161200  0.35505002     0.84400
O2527       O  0.78846857  0.54467854  0.16167598    -0.77700
C2528       C  0.76346139  0.61000562  0.24702227     0.84500
C2529       C  0.70091423  0.52067179  0.28832946     0.84800
O2530       O  0.70735619  0.53452581  0.25637929    -0.80100
O2531       O  0.82018130  0.79242075  0.46965868    -0.77600
C2532       C  0.84776569  0.71883836  0.49829116     0.83400
O2533       O  0.73571899  0.69508930  0.41500779    -0.78700
O2534       O  0.75940226  0.64985710  0.02846270    -0.80200
O2535       O  0.77863660  0.75352182  0.08420141    -0.80000
O2536       O  0.77505418  0.78662209  0.99657241    -0.78600
Zn2537     Zn  0.80732630  0.74516807  0.46465553     1.55700
O2538       O  0.77786702  0.70712936  0.08930763    -0.80000
Cd2539     Cd  0.75695349  0.74135036  0.03015272     1.59700
Cd2540     Cd  0.74215940  0.68330371  0.46934734     1.59600
O2541       O  0.71365547  0.69632893  0.04928625    -0.80000
O2542       O  0.77437479  0.72052886  0.49864107    -1.90500
Cd2543     Cd  0.78480987  0.69783747  0.03569836     1.59900
O2544       O  0.70468948  0.65933670  0.50457645    -0.80000
O2545       O  0.82981989  0.70764685  0.02707295    -0.78600
C2546       C  0.76082546  0.71315164  0.39594611     0.83900
C2547       C  0.80142831  0.80345324  0.47704206     0.83600
O2548       O  0.84272954  0.73404327  0.47183361    -0.77600
C2549       C  0.77839585  0.73134515  0.10429857     0.84400
O2550       O  0.78820637  0.73077140  0.41194276    -0.77700
C2551       C  0.69965207  0.66667314  0.03756878     0.84500
C2552       C  0.75881532  0.63738370  0.99649010     0.84800
O2553       O  0.75738864  0.65034582  0.46561920    -0.80100
O2554       O  0.75053601  0.64703603  0.21999687    -0.77600
C2555       C  0.68663955  0.69139822  0.22736709     0.83400
O2556       O  0.79466044  0.75616765  0.16522813    -0.78700
O2557       O  0.79453830  0.77796897  0.29981380    -0.80200
O2558       O  0.78448754  0.71307366  0.33902466    -0.80000
O2559       O  0.77800293  0.65891570  0.27500601    -0.78600
Zn2560     Zn  0.74447363  0.68507300  0.21313437     1.55700
O2561       O  0.73804234  0.71259522  0.33467818    -0.80000
Cd2562     Cd  0.79238028  0.70543042  0.28457699     1.59700
Cd2563     Cd  0.80687049  0.74944870  0.21904514     1.59600
O2564       O  0.84062142  0.72994262  0.27677030    -0.80000
O2565       O  0.77004364  0.71715838  0.24837048    -1.90500
Cd2566     Cd  0.74943709  0.73435370  0.28102365     1.59900
O2567       O  0.84167316  0.73647320  0.21437271    -0.80000
O2568       O  0.70343660  0.71710579  0.24834957    -0.78600
C2569       C  0.77710609  0.73104973  0.14560222     0.83900
C2570       C  0.76373391  0.64013536  0.24706582     0.83600
O2571       O  0.69801616  0.67348272  0.21773863    -0.77600
C2572       C  0.76039481  0.71249587  0.35446873     0.84400
O2573       O  0.75955836  0.70371927  0.16097894    -0.77700
C2574       C  0.85453817  0.73410275  0.24500579     0.84500
C2575       C  0.82378934  0.79249689  0.28702734     0.84800
O2576       O  0.83030463  0.78737117  0.25372132    -0.80100
O2577       O  0.90313168  0.74257902  0.21668791    -0.77600
C2578       C  0.51148290  0.80447856  0.22455303     0.83400
O2579       O  0.96148853  0.68753951  0.16730835    -0.78700
O2580       O  0.99024725  0.69739909  0.30063861    -0.80200
O2581       O  0.93684202  0.71615469  0.33987627    -0.80000
O2582       O  0.88973802  0.72164120  0.27485243    -0.78600
Zn2583     Zn  0.94640886  0.74519997  0.20991064     1.55700
O2584       O  0.98726418  0.75615249  0.33783672    -0.80000
Cd2585     Cd  0.92000261  0.70526909  0.28594736     1.59700
Cd2586     Cd  0.94594033  0.68333844  0.22250179     1.59600
O2587       O  0.89310728  0.65653149  0.28178725    -0.80000
O2588       O  0.95385966  0.72300580  0.24908053    -1.90500
Cd2589     Cd  0.99305620  0.74344578  0.28159388     1.59900
O2590       O  0.89789547  0.65167547  0.21981916    -0.80000
O2591       O  0.52050080  0.78967950  0.24868720    -0.78600
C2592       C  0.95306629  0.70317437  0.14568532     0.83900
C2593       C  0.88436510  0.73329289  0.24521100     0.83600
O2594       O  0.98291556  0.79085957  0.21090682    -0.77600
C2595       C  0.96248054  0.73670647  0.35672554     0.84400
O2596       O  0.94601745  0.72366430  0.15928184    -0.77700
C2597       C  0.88332048  0.64060009  0.25094583     0.84500
C2598       C  0.97225720  0.66734104  0.29075169     0.84800
O2599       O  0.95733052  0.65931281  0.25927442    -0.80100
O2600       O  0.87828793  0.69765533  0.02344337    -0.77600
C2601       C  0.94835068  0.69685340  0.10454855     0.83400
O2602       O  0.98582973  0.78675651  0.51583596    -0.78700
O2603       O  0.98885976  0.67217183  0.99514155    -0.80200
O2604       O  0.88784421  0.64963077  0.46593239    -0.80000
O2605       O  0.89217780  0.72029206  0.46727504    -0.78600
Zn2606     Zn  0.92338890  0.71475983  0.03821842     1.55700
O2607       O  0.90706457  0.63612034  0.01688093    -0.80000
Cd2608     Cd  0.91807350  0.69708416  0.46126191     1.59700
Cd2609     Cd  0.98710029  0.74749407  0.48160230     1.59600
O2610       O  0.93822208  0.70780924  0.41047438    -0.80000
O2611       O  0.94905818  0.71003136  0.00182377    -1.90500
Cd2612     Cd  0.95323719  0.67527219  0.02549406     1.59900
O2613       O  0.98173543  0.75507779  0.42190149    -0.80000
O2614       O  0.96310393  0.68593864  0.08460932    -0.78600
C2615       C  0.96257793  0.78534710  0.03656049     0.83900
C2616       C  0.87411441  0.71236494  0.99609023     0.83600
O2617       O  0.92867727  0.70378868  0.08941994    -0.77600
C2618       C  0.88519123  0.63016751  0.49182695     0.84400
O2619       O  0.93818493  0.75894111  0.04435772    -0.77700
C2620       C  0.96152745  0.73386100  0.39861736     0.84500
C2621       C  0.51185298  0.69460924  0.47647880     0.84800
O2622       O  0.51591936  0.72355596  0.47487780    -0.80100
O2623       O  0.81438797  0.84076585  0.13448143    -0.77600
C2624       C  0.71651284  0.80424696  0.16218319     0.83400
O2625       O  0.80047509  0.92328318  0.08166613    -0.78700
O2626       O  0.72643169  0.89131863  0.19208774    -0.80200
O2627       O  0.81523290  0.88044942  0.25047725    -0.80000
O2628       O  0.85257929  0.88631114  0.16249958    -0.78600
Zn2629     Zn  0.77952245  0.85179288  0.12864637     1.55700
O2630       O  0.76797110  0.87813645  0.25473001    -0.80000
Cd2631     Cd  0.82407152  0.90229296  0.19683638     1.59700
Cd2632     Cd  0.78144189  0.91626701  0.13548515     1.59600
O2633       O  0.82140713  0.94514451  0.21646843    -0.80000
O2634       O  0.78597646  0.88365301  0.16425424    -1.90500
Cd2635     Cd  0.75208166  0.86915409  0.20029829     1.59900
O2636       O  0.79417811  0.95391655  0.17073229    -0.80000
O2637       O  0.72175972  0.82200911  0.19128967    -0.78600
C2638       C  0.79346819  0.89846343  0.06172577     0.83900
C2639       C  0.84382681  0.86026929  0.14230965     0.83600
O2640       O  0.73557150  0.81273842  0.13403381    -0.77600
C2641       C  0.79237241  0.87918760  0.27025878     0.84400
O2642       O  0.78370163  0.87098018  0.07667808    -0.75900
C2643       C  0.80597706  0.95915602  0.20411654     0.84500
C2644       C  0.71793954  0.89811624  0.16088486     0.84800
O2645       O  0.73371656  0.90235249  0.13041744    -0.80100
O2646       O  0.73611699  0.90876815  0.38509086    -0.77600
C2647       C  0.84477639  0.97072289  0.39439198     0.83400
O2648       O  0.79907052  0.86182903  0.33131357    -0.78700
O2649       O  0.82240671  0.86191794  0.46630097    -0.80200
O2650       O  0.76820494  0.87620040  0.00481799    -0.80000
O2651       O  0.72111053  0.88382871  0.44100770    -0.78600
Zn2652     Zn  0.78041284  0.91407057  0.37965362     1.55700
O2653       O  0.81601607  0.92041609  0.00084314    -0.80000
Cd2654     Cd  0.75235800  0.86824258  0.45069310     1.59700
Cd2655     Cd  0.78114545  0.85029329  0.38590849     1.59600
O2656       O  0.72695811  0.82025133  0.44381453    -0.80000
O2657       O  0.78654686  0.88802688  0.41468520    -1.90500
Cd2658     Cd  0.82500058  0.90766657  0.44701141     1.59900
O2659       O  0.73299721  0.81698376  0.38175256    -0.80000
O2660       O  0.85365832  0.95329876  0.41404298    -0.78600
C2661       C  0.79313115  0.88054605  0.31175039     0.83900
C2662       C  0.71624825  0.89692829  0.41236053     0.83600
O2663       O  0.81528874  0.96024548  0.38603714    -0.77600
C2664       C  0.79282699  0.89920862  0.02039080     0.84400
O2665       O  0.78450094  0.89915404  0.32716849    -0.77700
C2666       C  0.71739098  0.80550152  0.41230557     0.84500
C2667       C  0.80675276  0.83231893  0.45419696     0.84800
O2668       O  0.79429914  0.82545086  0.42107218    -0.80100
O2669       O  0.67875904  0.75596368  0.38502011    -0.77600
C2670       C  0.63236566  0.64810661  0.39258399     0.83400
O2671       O  0.56831266  0.69345308  0.33071759    -0.78700
O2672       O  0.54519350  0.66943365  0.46289806    -0.80200
O2673       O  0.61410058  0.72470153  0.00462079    -0.80000
O2674       O  0.66875939  0.77167869  0.44077332    -0.78600
Zn2675     Zn  0.63966423  0.71245137  0.37837522     1.55700
O2676       O  0.60961337  0.67653967  0.99990758    -0.80000
Cd2677     Cd  0.62189175  0.74049937  0.45040011     1.59700
Cd2678     Cd  0.57635642  0.71219977  0.38479425     1.59600
O2679       O  0.59837012  0.76518681  0.44289120    -0.80000
O2680       O  0.60814794  0.70633484  0.41390904    -1.90500
Cd2681     Cd  0.58903351  0.66781378  0.44516575     1.59900
O2682       O  0.59134039  0.75996962  0.38034719    -0.80000
O2683       O  0.60652881  0.63935911  0.41292045    -0.78600
C2684       C  0.59313116  0.70062082  0.31098796     0.83900
C2685       C  0.68683734  0.77593835  0.41245127     0.83600
O2686       O  0.65044460  0.67722434  0.38289048    -0.77600
C2687       C  0.61185969  0.69983803  0.01984026     0.84400
O2688       O  0.62060450  0.70963556  0.32626560    -0.77700
C2689       C  0.59372998  0.77484827  0.41124415     0.84500
C2690       C  0.53314386  0.68715296  0.45221999     0.84800
O2691       O  0.53970907  0.70084604  0.42016939    -0.80100
O2692       O  0.53063302  0.67824738  0.13452236    -0.77600
C2693       C  0.59594452  0.77733822  0.16156543     0.83400
O2694       O  0.62808214  0.69206795  0.08117774    -0.78700
O2695       O  0.67248393  0.76450073  0.19354803    -0.80200
O2696       O  0.57020382  0.67906790  0.24982019    -0.80000
O2697       O  0.53662589  0.64024963  0.16442579    -0.78600
Zn2698     Zn  0.57705404  0.71269879  0.12866330     1.55700
O2699       O  0.61592176  0.72555377  0.25451631    -0.80000
Cd2700     Cd  0.58267106  0.66899581  0.19685687     1.59700
Cd2701     Cd  0.63999040  0.71061456  0.13564430     1.59600
O2702       O  0.62817311  0.67149834  0.21714047    -0.80000
O2703       O  0.60282630  0.70650248  0.16409473    -1.90500
Cd2704     Cd  0.62423250  0.74087443  0.20022924     1.59900
O2705       O  0.66412819  0.69715840  0.17124627    -0.80000
O2706       O  0.60990827  0.77295014  0.18984058    -0.78600
C2707       C  0.61014890  0.69897785  0.06125776     0.83900
C2708       C  0.51949346  0.64907106  0.14405029     0.83600
O2709       O  0.58296242  0.75699137  0.13457952    -0.77600
C2710       C  0.59225180  0.70163198  0.26972208     0.84400
O2711       O  0.59204049  0.70836786  0.07636551    -0.77700
C2712       C  0.65758717  0.68614604  0.20478987     0.84500
C2713       C  0.68669264  0.77384526  0.16195599     0.84800
O2714       O  0.67425841  0.75829045  0.13129471    -0.80100
O2715       O  0.65266910  0.96156387  0.13323189    -0.77600
C2716       C  0.68820327  0.89877391  0.16139014     0.83400
O2717       O  0.56936283  0.86320723  0.08072050    -0.78700
O2718       O  0.60236528  0.82264012  0.19241958    -0.80200
O2719       O  0.61367083  0.92263684  0.25052926    -0.80000
O2720       O  0.60906666  0.95578030  0.16415296    -0.78600
Zn2721     Zn  0.64122425  0.91541707  0.12776860     1.55700
O2722       O  0.61575787  0.87770142  0.25418863    -0.80000
Cd2723     Cd  0.59176178  0.90988257  0.19666208     1.59700
Cd2724     Cd  0.57726928  0.85253248  0.13484495     1.59600
O2725       O  0.54967429  0.86334588  0.21638526    -0.80000
O2726       O  0.60979584  0.89029227  0.16357367    -1.90500
Cd2727     Cd  0.62414623  0.87056765  0.19988807     1.59900
O2728       O  0.53952984  0.82808933  0.16922648    -0.80000
O2729       O  0.67088929  0.88685293  0.19064099    -0.78600
C2730       C  0.59386605  0.88098045  0.06070033     0.83900
C2731       C  0.63463824  0.97268535  0.14332245     0.83600
O2732       O  0.67982974  0.90978786  0.13342972    -0.77600
C2733       C  0.61455191  0.90076293  0.26999474     0.84400
O2734       O  0.62148229  0.89951424  0.07565363    -0.77700
C2735       C  0.53515651  0.83408364  0.20314338     0.84500
C2736       C  0.59597922  0.80742490  0.16113298     0.84800
O2737       O  0.59138883  0.81874990  0.13061859    -0.80100
O2738       O  0.58306317  0.81324099  0.38322785    -0.77600
C2739       C  0.51917080  0.85765468  0.39198860     0.83400
O2740       O  0.62977604  0.92375009  0.33203636    -0.78700
O2741       O  0.62680484  0.94322365  0.46703502    -0.80200
O2742       O  0.61625823  0.87875061  0.00382616    -0.80000
O2743       O  0.60532609  0.82208770  0.44131186    -0.78600
Zn2744     Zn  0.57740846  0.85172797  0.37702920     1.55700
O2745       O  0.56976543  0.87806025  0.99966547    -0.80000
Cd2746     Cd  0.62260053  0.86911507  0.44982665     1.59700
Cd2747     Cd  0.64050316  0.91542981  0.38608411     1.59600
O2748       O  0.67066601  0.89015355  0.44268995    -0.80000
O2749       O  0.60241730  0.88297592  0.41336218    -1.90500
Cd2750     Cd  0.58172440  0.90007989  0.44632122     1.59900
O2751       O  0.67463798  0.90170358  0.38130181    -0.80000
O2752       O  0.53557896  0.88290138  0.41380992    -0.78600
C2753       C  0.61218630  0.89931239  0.31129958     0.83900
C2754       C  0.59353949  0.80475412  0.41169973     0.83600
O2755       O  0.53103892  0.84042139  0.38122461    -0.77600
C2756       C  0.59250200  0.87870877  0.01937429     0.84400
O2757       O  0.59372648  0.87165593  0.32549326    -0.77700
C2758       C  0.68602361  0.89689761  0.41171960     0.84500
C2759       C  0.65663109  0.95685314  0.45616098     0.84800
O2760       O  0.66412070  0.95156921  0.42344779    -0.80100
O2761       O  0.64763589  0.50632042  0.30179103    -0.77600
C2762       C  0.54952169  0.96969803  0.32833532     0.83400
O2763       O  0.63109376  0.58852307  0.24876996    -0.78700
O2764       O  0.55863249  0.55670288  0.36026344    -0.80200
O2765       O  0.64853539  0.54744032  0.41787282    -0.80000
O2766       O  0.68557478  0.55134809  0.33089161    -0.78600
Zn2767     Zn  0.61276018  0.51750984  0.29543141     1.55700
O2768       O  0.60037356  0.54322328  0.42172695    -0.80000
Cd2769     Cd  0.65685904  0.56815113  0.36381035     1.59700
Cd2770     Cd  0.61244247  0.58061862  0.30272900     1.59600
O2771       O  0.65395254  0.61108034  0.38275704    -0.80000
O2772       O  0.61844972  0.54891062  0.33144173    -1.90500
Cd2773     Cd  0.58433972  0.53432182  0.36747062     1.59900
O2774       O  0.62473590  0.61796233  0.33785830    -0.80000
O2775       O  0.55417367  0.98726527  0.35751435    -0.78600
C2776       C  0.62516515  0.56418115  0.22850926     0.83900
C2777       C  0.67695903  0.52526670  0.31079109     0.83600
O2778       O  0.56896844  0.97841618  0.30056759    -0.77600
C2779       C  0.62533627  0.54565260  0.43738406     0.84400
O2780       O  0.61665842  0.53682938  0.24320968    -0.77700
C2781       C  0.63752083  0.62415718  0.37070314     0.84500
C2782       C  0.54959300  0.56301901  0.32913959     0.84800
O2783       O  0.56458477  0.56619993  0.29829088    -0.80100
O2784       O  0.56796758  0.57549836  0.05206437    -0.77600
C2785       C  0.67601431  0.63826255  0.06031089     0.83400
O2786       O  0.63445513  0.03125151  0.49887817    -0.78700
O2787       O  0.65502479  0.53104314  0.13347985    -0.80200
O2788       O  0.60057111  0.54180940  0.17108803    -0.80000
O2789       O  0.55261674  0.54896145  0.10708170    -0.78600
Zn2790     Zn  0.61205691  0.58099508  0.04566618     1.55700
O2791       O  0.64680481  0.58786080  0.16788652    -0.80000
Cd2792     Cd  0.58477285  0.53432504  0.11661068     1.59700
Cd2793     Cd  0.61485504  0.01913040  0.05217085     1.59600
O2794       O  0.56161911  0.98636986  0.10808924    -0.80000
O2795       O  0.61891614  0.55603018  0.08117254    -1.90500
Cd2796     Cd  0.65682843  0.57617353  0.11409093     1.59900
O2797       O  0.56727590  0.98496268  0.04574230    -0.80000
O2798       O  0.68505430  0.62157943  0.08111339    -0.78600
C2799       C  0.62632727  0.54798306  0.47870297     0.83900
C2800       C  0.54805685  0.56303325  0.07918284     0.83600
O2801       O  0.64661479  0.62721383  0.05102001    -0.77600
C2802       C  0.62442817  0.56539632  0.18712085     0.84400
O2803       O  0.61586536  0.56533574  0.49347903    -0.77700
C2804       C  0.55217132  0.97222275  0.07618841     0.84500
C2805       C  0.63948860  0.00152791  0.12122978     0.84800
O2806       O  0.62746824  0.99471548  0.08795927    -0.80100
O2807       O  0.86454200  0.84542341  0.29802120    -0.77600
C2808       C  0.93047174  0.94463614  0.32551926     0.83400
O2809       O  0.96135504  0.85826664  0.24552431    -0.78700
O2810       O  0.50570616  0.92922273  0.35899401    -0.80200
O2811       O  0.90248842  0.84691889  0.41489054    -0.80000
O2812       O  0.86946910  0.80766168  0.33020711    -0.78600
Zn2813     Zn  0.91086232  0.87985090  0.29255194     1.55700
O2814       O  0.94808441  0.89346488  0.41885397    -0.80000
Cd2815     Cd  0.91532137  0.83623846  0.36237051     1.59700
Cd2816     Cd  0.47277823  0.87644886  0.30019256     1.59600
O2817       O  0.96083508  0.83894713  0.38284477    -0.80000
O2818       O  0.93578753  0.87300125  0.32850404    -1.90500
Cd2819     Cd  0.95756546  0.90740855  0.36442783     1.59900
O2820       O  0.49609290  0.86189895  0.33554294    -0.80000
O2821       O  0.94495282  0.94032838  0.35319594    -0.78600
C2822       C  0.94415891  0.86595482  0.22537583     0.83900
C2823       C  0.85287141  0.81648665  0.30890316     0.83600
O2824       O  0.91678552  0.92416772  0.29879064    -0.77600
C2825       C  0.92429565  0.86998776  0.43442091     0.84400
O2826       O  0.92632692  0.87576632  0.24032153    -0.77700
C2827       C  0.48995553  0.85228454  0.36969534     0.84500
C2828       C  0.51991874  0.93916898  0.32754401     0.84800
O2829       O  0.50753364  0.92410028  0.29658802    -0.80100
O2830       O  0.01337150  0.92275527  0.04808013    -0.77600
C2831       C  0.96049168  0.81340319  0.05201000     0.83400
O2832       O  0.90107943  0.86252643  0.49607091    -0.78700
O2833       O  0.87996607  0.83856798  0.12932976    -0.80200
O2834       O  0.94925398  0.89245390  0.16908061    -0.80000
O2835       O  0.50424429  0.93790481  0.10483387    -0.78600
Zn2836     Zn  0.97296524  0.87969685  0.04088403     1.55700
O2837       O  0.94418736  0.84419160  0.16363093    -0.80000
Cd2838     Cd  0.95750787  0.90835854  0.11501800     1.59700
Cd2839     Cd  0.91000000  0.88097591  0.05064266     1.59600
O2840       O  0.93578735  0.93472246  0.10905213    -0.80000
O2841       O  0.94230948  0.87473965  0.07790219    -1.90500
Cd2842     Cd  0.92276103  0.83684097  0.10949967     1.59900
O2843       O  0.92541754  0.92873989  0.04705066    -0.80000
O2844       O  0.93685415  0.80781331  0.07490718    -0.78600
C2845       C  0.92557085  0.86959472  0.47568378     0.83900
C2846       C  0.52189568  0.94237345  0.07605422     0.83600
O2847       O  0.98023623  0.84162375  0.04052838    -0.77600
C2848       C  0.94650650  0.86730645  0.18398590     0.84400
O2849       O  0.95325629  0.87856504  0.49019808    -0.77700
C2850       C  0.92934945  0.94387004  0.07815612     0.84500
C2851       C  0.86749664  0.85590304  0.11915399     0.84800
O2852       O  0.87385481  0.86987280  0.08726501    -0.80100
O2853       O  0.98668654  0.62857105  0.30508675    -0.77600
C2854       C  0.52026168  0.56447136  0.33009745     0.83400
O2855       O  0.90203427  0.03011748  0.24875321    -0.78700
O2856       O  0.93587021  0.98886250  0.35785336    -0.80200
O2857       O  0.94599186  0.58818327  0.41767453    -0.80000
O2858       O  0.94108667  0.62118696  0.33219951    -0.78600
Zn2859     Zn  0.97392585  0.58211130  0.29672670     1.55700
O2860       O  0.94647794  0.54243402  0.42170171    -0.80000
Cd2861     Cd  0.92372530  0.57540056  0.36421046     1.59700
Cd2862     Cd  0.91017971  0.01854989  0.30245774     1.59600
O2863       O  0.88130114  0.52927669  0.38360686    -0.80000
O2864       O  0.94214851  0.55625071  0.33136316    -1.90500
Cd2865     Cd  0.95634568  0.53644961  0.36756047     1.59900
O2866       O  0.87408964  0.99280011  0.33905878    -0.80000
O2867       O  0.50353242  0.55384880  0.36000296    -0.78600
C2868       C  0.92650930  0.54879529  0.22907617     0.83900
C2869       C  0.96764693  0.63892820  0.31336752     0.83600
O2870       O  0.01159137  0.57485971  0.30176663    -0.77600
C2871       C  0.94614316  0.56604047  0.43731208     0.84400
O2872       O  0.95396485  0.56753070  0.24435081    -0.77700
C2873       C  0.86840320  0.99961510  0.37199528     0.84500
C2874       C  0.93025095  0.97451267  0.32598884     0.84800
O2875       O  0.92584858  0.98636494  0.29586682    -0.80100
O2876       O  0.91730125  0.98146452  0.05140818    -0.77600
C2877       C  0.85223593  0.52380948  0.06056433     0.83400
O2878       O  0.96197465  0.59002114  0.49872780    -0.78700
O2879       O  0.96090766  0.61126687  0.13350300    -0.80200
O2880       O  0.94917532  0.54663008  0.17230404    -0.80000
O2881       O  0.93990814  0.99047818  0.10928617    -0.78600
Zn2882     Zn  0.91074186  0.51903373  0.04538175     1.55700
O2883       O  0.90319607  0.54694093  0.16776157    -0.80000
Cd2884     Cd  0.95600013  0.53732381  0.11817679     1.59700
Cd2885     Cd  0.47309963  0.58272695  0.05298622     1.59600
O2886       O  0.50401197  0.55882889  0.11079097    -0.80000
O2887       O  0.93556001  0.55068509  0.08133371    -1.90500
Cd2888     Cd  0.91510998  0.56812936  0.11389659     1.59900
O2889       O  0.50653735  0.56813554  0.04881843    -0.80000
O2890       O  0.86856837  0.54955049  0.08167826    -0.78600
C2891       C  0.94427779  0.56523340  0.47859479     0.83900
C2892       C  0.92837157  0.97329468  0.07950279     0.83600
O2893       O  0.86439621  0.50679338  0.05009834    -0.77600
C2894       C  0.92553577  0.54699079  0.18766793     0.84400
O2895       O  0.92608408  0.53785336  0.49344249    -0.77700
C2896       C  0.51836658  0.56392053  0.07925031     0.84500
C2897       C  0.49048245  0.62523386  0.12160297     0.84800
O2898       O  0.49732720  0.61999182  0.08852303    -0.80100
O2899       O  0.69611735  0.50983903  0.96979151    -0.77600
C2900       C  0.76153866  0.60884197  0.99653151     0.83400
O2901       O  0.79068099  0.52104031  0.91610493    -0.78700
O2902       O  0.84122191  0.59405472  0.52727730    -0.80200
O2903       O  0.73689052  0.51298267  0.58580919    -0.80000
O2904       O  0.70224530  0.97213073  0.50009643    -0.78600
Zn2905     Zn  0.74236899  0.54415983  0.96421126     1.55700
O2906       O  0.78342671  0.55895239  0.58924898    -0.80000
Cd2907     Cd  0.74811202  0.50139943  0.53291624     1.59700
Cd2908     Cd  0.80355956  0.53986673  0.97006850     1.59600
O2909       O  0.79376699  0.50448212  0.55277070    -0.80000
O2910       O  0.76829819  0.53836523  0.99971200    -1.90500
Cd2911     Cd  0.79241056  0.57370260  0.53450542     1.59900
O2912       O  0.82765809  0.52543877  0.00404034    -0.80000
O2913       O  0.77827381  0.60633176  0.52318911    -0.78600
C2914       C  0.77428703  0.52991062  0.89633239     0.83900
C2915       C  0.68516481  0.98071505  0.97923138     0.83600
O2916       O  0.74729440  0.58755418  0.97084049    -0.77600
C2917       C  0.75955787  0.53560539  0.60511300     0.84400
O2918       O  0.75728292  0.54052038  0.91166101    -0.77700
C2919       C  0.82249851  0.51732343  0.53872638     0.84500
C2920       C  0.85406764  0.60157807  0.49474889     0.84800
O2921       O  0.83865692  0.58677771  0.96485227    -0.80100
O2922       O  0.84530175  0.59137264  0.72283153    -0.77600
C2923       C  0.80066002  0.98282009  0.72659095     0.83400
O2924       O  0.73602031  0.52773166  0.66643997    -0.78700
O2925       O  0.71355642  0.50348521  0.79896980    -0.80200
O2926       O  0.77743906  0.55587754  0.84021862    -0.80000
O2927       O  0.83686125  0.60359210  0.78154967    -0.78600
Zn2928     Zn  0.80745965  0.54722997  0.71408844     1.55700
O2929       O  0.77757655  0.50997454  0.83471899    -0.80000
Cd2930     Cd  0.78925286  0.57343249  0.78712118     1.59700
Cd2931     Cd  0.74394701  0.54626643  0.72071823     1.59600
O2932       O  0.76905517  0.60099804  0.77856877    -0.80000
O2933       O  0.77570674  0.54018358  0.74933531    -1.90500
Cd2934     Cd  0.75702584  0.50157393  0.78016672     1.59900
O2935       O  0.75915513  0.59407289  0.71648124    -0.80000
O2936       O  0.77477718  0.97370270  0.74698627    -0.78600
C2937       C  0.76083308  0.53523000  0.64651159     0.83900
C2938       C  0.85385225  0.60997646  0.75177835     0.83600
O2939       O  0.81880164  0.51217035  0.71769894    -0.77600
C2940       C  0.77677116  0.53161233  0.85504935     0.84400
O2941       O  0.78846940  0.54467592  0.66167579    -0.77700
C2942       C  0.76346412  0.61000732  0.74702203     0.84500
C2943       C  0.70091444  0.52067203  0.78832792     0.84800
O2944       O  0.70735702  0.53452655  0.75637803    -0.80100
O2945       O  0.82018100  0.79242140  0.96965948    -0.77600
C2946       C  0.84777194  0.71885285  0.99825143     0.83400
O2947       O  0.73571987  0.69509248  0.91500631    -0.78700
O2948       O  0.75941186  0.64986085  0.52846514    -0.80200
O2949       O  0.77863772  0.75352314  0.58420218    -0.80000
O2950       O  0.77505551  0.78662207  0.49657420    -0.78600
Zn2951     Zn  0.80732590  0.74516870  0.96465654     1.55700
O2952       O  0.77786934  0.70713148  0.58930856    -0.80000
Cd2953     Cd  0.75695491  0.74135015  0.53015373     1.59700
Cd2954     Cd  0.74215877  0.68330484  0.96934552     1.59600
O2955       O  0.71365778  0.69632797  0.54928815    -0.80000
O2956       O  0.77437328  0.72052866  0.99864070    -1.90500
Cd2957     Cd  0.78481508  0.69784156  0.53569977     1.59900
O2958       O  0.70468864  0.65933757  0.00457519    -0.80000
O2959       O  0.82983094  0.70765867  0.52706832    -0.78600
C2960       C  0.76082637  0.71315393  0.89594535     0.83900
C2961       C  0.80142747  0.80345352  0.97704116     0.83600
O2962       O  0.84272948  0.73403983  0.97184379    -0.77600
C2963       C  0.77839673  0.73134668  0.60429949     0.84400
O2964       O  0.78820773  0.73077306  0.91194286    -0.77700
C2965       C  0.69965372  0.66667223  0.53757035     0.84500
C2966       C  0.75882000  0.63738488  0.49649301     0.84800
O2967       O  0.75738823  0.65034704  0.96561669    -0.80100
O2968       O  0.75053712  0.64703695  0.71999731    -0.77600
C2969       C  0.68663988  0.69139897  0.72736697     0.83400
O2970       O  0.79465908  0.75616882  0.66522908    -0.78700
O2971       O  0.79453816  0.77797181  0.79981186    -0.80200
O2972       O  0.78448932  0.71307704  0.83902379    -0.80000
O2973       O  0.77800587  0.65891813  0.77500512    -0.78600
Zn2974     Zn  0.74447359  0.68507338  0.71313475     1.55700
O2975       O  0.73804362  0.71259785  0.83467745    -0.80000
Cd2976     Cd  0.79238173  0.70543288  0.78457599     1.59700
Cd2977     Cd  0.80686997  0.74944866  0.71904449     1.59600
O2978       O  0.84062283  0.72994646  0.77676746    -0.80000
O2979       O  0.77004346  0.71715922  0.74837032    -1.90500
Cd2980     Cd  0.74943754  0.73435560  0.78102271     1.59900
O2981       O  0.84167175  0.73647211  0.71436933    -0.80000
O2982       O  0.70343732  0.71710715  0.74834840    -0.78600
C2983       C  0.77710555  0.73105060  0.64560296     0.83900
C2984       C  0.76373619  0.64013703  0.74706538     0.83600
O2985       O  0.69801596  0.67348279  0.71773968    -0.77600
C2986       C  0.76039705  0.71249912  0.85446792     0.84400
O2987       O  0.75955838  0.70372008  0.66097941    -0.77700
C2988       C  0.85453811  0.73410370  0.74500320     0.84500
C2989       C  0.82378950  0.79249817  0.78702615     0.84800
O2990       O  0.83030497  0.78737033  0.75372129    -0.80100
O2991       O  0.90313112  0.74257805  0.71668463    -0.77600
C2992       C  0.51148227  0.80447739  0.72455242     0.83400
O2993       O  0.96149074  0.68753911  0.66730859    -0.78700
O2994       O  0.99024719  0.69739970  0.80064059    -0.80200
O2995       O  0.93683998  0.71615492  0.83987482    -0.80000
O2996       O  0.88973773  0.72164212  0.77484989    -0.78600
Zn2997     Zn  0.94640870  0.74519882  0.70990925     1.55700
O2998       O  0.98726212  0.75615274  0.83783644    -0.80000
Cd2999     Cd  0.92000171  0.70526954  0.78594564     1.59700
Cd3000     Cd  0.94594185  0.68333811  0.72250189     1.59600
O3001       O  0.89310636  0.65653212  0.78178547    -0.80000
O3002       O  0.95385942  0.72300529  0.74907982    -1.90500
Cd3003     Cd  0.99305549  0.74344564  0.78159436     1.59900
O3004       O  0.89789728  0.65167406  0.71981832    -0.80000
O3005       O  0.52050004  0.78967860  0.74868695    -0.78600
C3006       C  0.95306768  0.70317314  0.64568508     0.83900
C3007       C  0.88436491  0.73329336  0.74520717     0.83600
O3008       O  0.98291501  0.79085828  0.71090587    -0.77600
C3009       C  0.96247885  0.73670736  0.85672464     0.84400
O3010       O  0.94601831  0.72366276  0.65928119    -0.77700
C3011       C  0.88332107  0.64059963  0.75094453     0.84500
C3012       C  0.97225783  0.66734176  0.79075338     0.84800
O3013       O  0.95733221  0.65931342  0.75927543    -0.80100
O3014       O  0.87829031  0.69765369  0.52345041    -0.77600
C3015       C  0.94835145  0.69685120  0.60454855     0.83400
O3016       O  0.98582802  0.78675727  0.01583489    -0.78700
O3017       O  0.98885897  0.67216971  0.49514010    -0.80200
O3018       O  0.88784288  0.64963124  0.96593246    -0.80000
O3019       O  0.89217937  0.72029450  0.96726912    -0.78600
Zn3020     Zn  0.92339005  0.71475839  0.53821977     1.55700
O3021       O  0.90706528  0.63612006  0.51688156    -0.80000
Cd3022     Cd  0.91807184  0.69708483  0.96126193     1.59700
Cd3023     Cd  0.98709862  0.74749498  0.98160146     1.59600
O3024       O  0.93821907  0.70781074  0.91047363    -0.80000
O3025       O  0.94905932  0.71003081  0.50182431    -1.90500
Cd3026     Cd  0.95323809  0.67527148  0.52549373     1.59900
O3027       O  0.98173361  0.75507828  0.92190061    -0.80000
O3028       O  0.96310649  0.68593897  0.58460860    -0.78600
C3029       C  0.96258022  0.78534608  0.53656307     0.83900
C3030       C  0.87412711  0.71238401  0.49605004     0.83600
O3031       O  0.92867527  0.70378333  0.58942073    -0.77600
C3032       C  0.88519005  0.63016800  0.99182635     0.84400
O3033       O  0.93818816  0.75893994  0.54436194    -0.77700
C3034       C  0.96152442  0.73386115  0.89861654     0.84500
C3035       C  0.51185348  0.69461179  0.97647998     0.84800
O3036       O  0.51591863  0.72355784  0.97487821    -0.80100
O3037       O  0.81438720  0.84076522  0.63447982    -0.77600
C3038       C  0.71651401  0.80424706  0.66218317     0.83400
O3039       O  0.80047522  0.92328393  0.58166577    -0.78700
O3040       O  0.72643029  0.89131565  0.69208710    -0.80200
O3041       O  0.81523619  0.88045267  0.75047585    -0.80000
O3042       O  0.85257962  0.88630962  0.66249849    -0.78600
Zn3043     Zn  0.77952245  0.85179346  0.62864560     1.55700
O3044       O  0.76797392  0.87813871  0.75472870    -0.80000
Cd3045     Cd  0.82407360  0.90229428  0.69683407     1.59700
Cd3046     Cd  0.78144271  0.91626803  0.63548491     1.59600
O3047       O  0.82140976  0.94514604  0.71646663    -0.80000
O3048       O  0.78597746  0.88365379  0.66425327    -1.90500
Cd3049     Cd  0.75208299  0.86915379  0.70029778     1.59900
O3050       O  0.79417940  0.95391757  0.67073181    -0.80000
O3051       O  0.72176250  0.82200794  0.69129111    -0.78600
C3052       C  0.79346774  0.89846389  0.56172592     0.83900
C3053       C  0.84382615  0.86026742  0.64230887     0.83600
O3054       O  0.73557129  0.81273984  0.63403220    -0.77600
C3055       C  0.79237546  0.87919089  0.77025741     0.84400
O3056       O  0.78370128  0.87098074  0.57667835    -0.75900
C3057       C  0.80597882  0.95915691  0.70411583     0.84500
C3058       C  0.71793943  0.89811602  0.66088555     0.84800
O3059       O  0.73371741  0.90235439  0.63041798    -0.80100
O3060       O  0.73611685  0.90876893  0.88508717    -0.77600
C3061       C  0.84477528  0.97072394  0.89439219     0.83400
O3062       O  0.79907048  0.86183013  0.83131221    -0.78700
O3063       O  0.82240691  0.86191832  0.96629861    -0.80200
O3064       O  0.76820508  0.87619915  0.50481872    -0.80000
O3065       O  0.72111236  0.88383446  0.94100704    -0.78600
Zn3066     Zn  0.78041335  0.91407228  0.87965238     1.55700
O3067       O  0.81601496  0.92041651  0.50084367    -0.80000
Cd3068     Cd  0.75235800  0.86824558  0.95069198     1.59700
Cd3069     Cd  0.78114472  0.85029388  0.88590693     1.59600
O3070       O  0.72695695  0.82025448  0.94381325    -0.80000
O3071       O  0.78654654  0.88802776  0.91468370    -1.90500
Cd3072     Cd  0.82500054  0.90766681  0.94700947     1.59900
O3073       O  0.73299692  0.81698368  0.88175189    -0.80000
O3074       O  0.85365762  0.95329909  0.91404108    -0.78600
C3075       C  0.79313405  0.88054902  0.81174918     0.83900
C3076       C  0.71624916  0.89693176  0.91235879     0.83600
O3077       O  0.81528729  0.96024727  0.88604009    -0.77600
C3078       C  0.79282633  0.89920841  0.52039123     0.84400
O3079       O  0.78450500  0.89915822  0.82716717    -0.77700
C3080       C  0.71739109  0.80550237  0.91230486     0.84500
C3081       C  0.80675204  0.83231910  0.95419536     0.84800
O3082       O  0.79429789  0.82545090  0.92107089    -0.80100
O3083       O  0.67875901  0.75596434  0.88501999    -0.77600
C3084       C  0.63236516  0.64810708  0.89258425     0.83400
O3085       O  0.56831357  0.69345741  0.83071794    -0.78700
O3086       O  0.54519369  0.66943566  0.96289895    -0.80200
O3087       O  0.61409965  0.72470050  0.50461955    -0.80000
O3088       O  0.66876248  0.77167701  0.94077665    -0.78600
Zn3089     Zn  0.63966432  0.71245205  0.87837555     1.55700
O3090       O  0.60961275  0.67653864  0.49990655    -0.80000
Cd3091     Cd  0.62189442  0.74050027  0.95040185     1.59700
Cd3092     Cd  0.57635830  0.71220330  0.88479553     1.59600
O3093       O  0.59837750  0.76519223  0.94289255    -0.80000
O3094       O  0.60814854  0.70633605  0.91390979    -1.90500
Cd3095     Cd  0.58903372  0.66781514  0.94516673     1.59900
O3096       O  0.59134414  0.75997335  0.88034891    -0.80000
O3097       O  0.60652846  0.63935988  0.91292095    -0.78600
C3098       C  0.59313170  0.70062344  0.81098824     0.83900
C3099       C  0.68683865  0.77593813  0.91245295     0.83600
O3100       O  0.65044421  0.67722478  0.88289065    -0.77600
C3101       C  0.61185893  0.69983700  0.51983913     0.84400
O3102       O  0.62060465  0.70963659  0.82626584    -0.77700
C3103       C  0.59373563  0.77485275  0.91124584     0.84500
C3104       C  0.53314522  0.68715615  0.95222178     0.84800
O3105       O  0.53971198  0.70085089  0.92017191    -0.80100
O3106       O  0.53063258  0.67824803  0.63452615    -0.77600
C3107       C  0.59594686  0.77733855  0.66156286     0.83400
O3108       O  0.62808345  0.69206932  0.58117657    -0.78700
O3109       O  0.67248571  0.76449953  0.69354766    -0.80200
O3110       O  0.57020500  0.67906926  0.74982051    -0.80000
O3111       O  0.53662672  0.64024989  0.66442655    -0.78600
Zn3112     Zn  0.57705377  0.71269793  0.62866325     1.55700
O3113       O  0.61592234  0.72555571  0.75451597    -0.80000
Cd3114     Cd  0.58267190  0.66899643  0.69685697     1.59700
Cd3115     Cd  0.63999141  0.71061575  0.63564318     1.59600
O3116       O  0.62817363  0.67149844  0.71713951    -0.80000
O3117       O  0.60282705  0.70650255  0.66409390    -1.90500
Cd3118     Cd  0.62423422  0.74087476  0.70022817     1.59900
O3119       O  0.66412925  0.69716014  0.67124613    -0.80000
O3120       O  0.60991172  0.77295118  0.68983751    -0.78600
C3121       C  0.61014839  0.69897701  0.56125680     0.83900
C3122       C  0.51949373  0.64907153  0.64405257     0.83600
O3123       O  0.58296321  0.75699098  0.63457827    -0.77600
C3124       C  0.59225238  0.70163406  0.76972206     0.84400
O3125       O  0.59203869  0.70836535  0.57636471    -0.77700
C3126       C  0.65758775  0.68614683  0.70478941     0.84500
C3127       C  0.68669377  0.77384543  0.66195529     0.84800
O3128       O  0.67425873  0.75829183  0.63129375    -0.80100
O3129       O  0.65266875  0.96156318  0.63323352    -0.77600
C3130       C  0.68820365  0.89877480  0.66139057     0.83400
O3131       O  0.56936197  0.86320640  0.58072004    -0.78700
O3132       O  0.60236852  0.82264076  0.69241687    -0.80200
O3133       O  0.61366833  0.92263506  0.75052784    -0.80000
O3134       O  0.60906347  0.95577704  0.66415024    -0.78600
Zn3135     Zn  0.64122368  0.91541646  0.62776856     1.55700
O3136       O  0.61575567  0.87769978  0.75418790    -0.80000
Cd3137     Cd  0.59175979  0.90988048  0.69666031     1.59700
Cd3138     Cd  0.57726908  0.85253096  0.63484372     1.59600
O3139       O  0.54967215  0.86334455  0.71638306    -0.80000
O3140       O  0.60979491  0.89029080  0.66357278    -1.90500
Cd3141     Cd  0.62414654  0.87056773  0.69988749     1.59900
O3142       O  0.53953062  0.82808700  0.66922632    -0.80000
O3143       O  0.67089049  0.88685562  0.69064286    -0.78600
C3144       C  0.59386506  0.88098033  0.56070007     0.83900
C3145       C  0.63463590  0.97268304  0.64332161     0.83600
O3146       O  0.67982917  0.90978679  0.63342953    -0.77600
C3147       C  0.61454942  0.90076112  0.76999370     0.84400
O3148       O  0.62148128  0.89951428  0.57565342    -0.77700
C3149       C  0.53515587  0.83408193  0.70314223     0.84500
C3150       C  0.59598159  0.80742525  0.66113063     0.84800
O3151       O  0.59138974  0.81874939  0.63061629    -0.80100
O3152       O  0.58306378  0.81324232  0.88323078    -0.77600
C3153       C  0.51916955  0.85765447  0.89198975     0.83400
O3154       O  0.62977346  0.92374958  0.83203481    -0.78700
O3155       O  0.62680345  0.94322330  0.96703544    -0.80200
O3156       O  0.61625612  0.87874742  0.50382642    -0.80000
O3157       O  0.60533384  0.82209355  0.94131121    -0.78600
Zn3158     Zn  0.57740792  0.85172843  0.87702993     1.55700
O3159       O  0.56976570  0.87806194  0.49966491    -0.80000
Cd3160     Cd  0.62260359  0.86911997  0.94982607     1.59700
Cd3161     Cd  0.64050202  0.91543084  0.88608254     1.59600
O3162       O  0.67066939  0.89016232  0.94268955    -0.80000
O3163       O  0.60241677  0.88297725  0.91336186    -1.90500
Cd3164     Cd  0.58172312  0.90007932  0.94632228     1.59900
O3165       O  0.67463728  0.90170482  0.88129967    -0.80000
O3166       O  0.53557719  0.88290081  0.91381196    -0.78600
C3167       C  0.61218435  0.89931143  0.81129858     0.83900
C3168       C  0.59354424  0.80475804  0.91170100     0.83600
O3169       O  0.53103832  0.84042205  0.88122511    -0.77600
C3170       C  0.59250112  0.87870842  0.51937403     0.84400
O3171       O  0.59372530  0.87165492  0.82549299    -0.77700
C3172       C  0.68602499  0.89690234  0.91171748     0.84500
C3173       C  0.65662942  0.95685401  0.95615998     0.84800
O3174       O  0.66411864  0.95157082  0.92344609    -0.80100
O3175       O  0.64763578  0.50632082  0.80178921    -0.77600
C3176       C  0.54952282  0.96969757  0.82833588     0.83400
O3177       O  0.63109290  0.58852290  0.74876894    -0.78700
O3178       O  0.55862901  0.55669928  0.86026303    -0.80200
O3179       O  0.64853498  0.54744043  0.91787149    -0.80000
O3180       O  0.68557453  0.55134833  0.83088991    -0.78600
Zn3181     Zn  0.61275995  0.51751021  0.79543075     1.55700
O3182       O  0.60037417  0.54322565  0.92172641    -0.80000
Cd3183     Cd  0.65685853  0.56815127  0.86380908     1.59700
Cd3184     Cd  0.61244203  0.58061953  0.80272852     1.59600
O3185       O  0.65395121  0.61107994  0.88275690    -0.80000
O3186       O  0.61844913  0.54891123  0.83144075    -1.90500
Cd3187     Cd  0.58433934  0.53432145  0.86747045     1.59900
O3188       O  0.62473612  0.61796368  0.83785767    -0.80000
O3189       O  0.55417552  0.98726384  0.85751551    -0.78600
C3190       C  0.62516508  0.56418118  0.72850863     0.83900
C3191       C  0.67695897  0.52526701  0.81078935     0.83600
O3192       O  0.56896866  0.97841671  0.80056666    -0.77600
C3193       C  0.62533640  0.54565413  0.93738319     0.84400
O3194       O  0.61665833  0.53682930  0.74320930    -0.77700
C3195       C  0.63752009  0.62415755  0.87070299     0.84500
C3196       C  0.54959062  0.56301726  0.82914029     0.84800
O3197       O  0.56458411  0.56620125  0.79829146    -0.80100
O3198       O  0.56796896  0.57549948  0.55206406    -0.77600
C3199       C  0.67601590  0.63826144  0.56031216     0.83400
O3200       O  0.63445795  0.03125465  0.99887712    -0.78700
O3201       O  0.65502703  0.53104100  0.63347591    -0.80200
O3202       O  0.60057043  0.54180970  0.67108770    -0.80000
O3203       O  0.55261789  0.54896276  0.60708145    -0.78600
Zn3204     Zn  0.61205786  0.58099518  0.54566655     1.55700
O3205       O  0.64680704  0.58785838  0.66788585    -0.80000
Cd3206     Cd  0.58477251  0.53432519  0.61661053     1.59700
Cd3207     Cd  0.61485063  0.01912858  0.55217102     1.59600
O3208       O  0.56161624  0.98637003  0.60808837    -0.80000
O3209       O  0.61891603  0.55602971  0.58117277    -1.90500
Cd3210     Cd  0.65682944  0.57617121  0.61408947     1.59900
O3211       O  0.56727081  0.98496468  0.54574084    -0.80000
O3212       O  0.68505571  0.62157750  0.58111332    -0.78600
C3213       C  0.62632808  0.54798454  0.97870208     0.83900
C3214       C  0.54805809  0.56303430  0.57918333     0.83600
O3215       O  0.64661639  0.62721342  0.55102174    -0.77600
C3216       C  0.62442836  0.56539542  0.68712020     0.84400
O3217       O  0.61586458  0.56533604  0.99347846    -0.77700
C3218       C  0.55216699  0.97222413  0.57618777     0.84500
C3219       C  0.63948550  0.00152498  0.62122877     0.84800
O3220       O  0.62745917  0.99471131  0.58796132    -0.80100
O3221       O  0.86454345  0.84542457  0.79801592    -0.77600
C3222       C  0.93047056  0.94463635  0.82551486     0.83400
O3223       O  0.96135646  0.85826622  0.74552346    -0.78700
O3224       O  0.50570640  0.92922281  0.85899327    -0.80200
O3225       O  0.90248757  0.84692331  0.91488921    -0.80000
O3226       O  0.86946831  0.80766411  0.83020781    -0.78600
Zn3227     Zn  0.91086368  0.87985207  0.79254864     1.55700
O3228       O  0.94808487  0.89346784  0.91885193    -0.80000
Cd3229     Cd  0.91532076  0.83624109  0.86237052     1.59700
Cd3230     Cd  0.47277890  0.87644797  0.80019181     1.59600
O3231       O  0.96083428  0.83895003  0.88284671    -0.80000
O3232       O  0.93578811  0.87300219  0.82850188    -1.90500
Cd3233     Cd  0.95756594  0.90740996  0.86442504     1.59900
O3234       O  0.49609114  0.86189568  0.83554268    -0.80000
O3235       O  0.94495296  0.94032943  0.85319111    -0.78600
C3236       C  0.94416117  0.86595579  0.72537464     0.83900
C3237       C  0.85287162  0.81648853  0.80890124     0.83600
O3238       O  0.91678475  0.92416798  0.79878647    -0.77600
C3239       C  0.92429553  0.86999175  0.93441929     0.84400
O3240       O  0.92632990  0.87576789  0.74031973    -0.77700
C3241       C  0.48995407  0.85228431  0.86969642     0.84500
C3242       C  0.51991999  0.93916829  0.82754329     0.84800
O3243       O  0.50753584  0.92409901  0.79658786    -0.80100
O3244       O  0.01336983  0.92275455  0.54808167    -0.77600
C3245       C  0.96049323  0.81340193  0.55201230     0.83400
O3246       O  0.90107996  0.86253040  0.99606999    -0.78700
O3247       O  0.87996639  0.83856646  0.62933135    -0.80200
O3248       O  0.94925486  0.89245382  0.66907979    -0.80000
O3249       O  0.50423824  0.93790828  0.60483037    -0.78600
Zn3250     Zn  0.97296496  0.87969507  0.54088600     1.55700
O3251       O  0.94418941  0.84419188  0.66363058    -0.80000
Cd3252     Cd  0.95750377  0.90835756  0.61501737     1.59700
Cd3253     Cd  0.90999864  0.88097280  0.55064290     1.59600
O3254       O  0.93577729  0.93471612  0.60905422    -0.80000
O3255       O  0.94230858  0.87473768  0.57790299    -1.90500
Cd3256     Cd  0.92276124  0.83683925  0.60950070     1.59900
O3257       O  0.92541469  0.92873700  0.54705144    -0.80000
O3258       O  0.93685544  0.80781180  0.57490911    -0.78600
C3259       C  0.92557113  0.86959878  0.97568239     0.83900
C3260       C  0.52189145  0.94237494  0.57605241     0.83600
O3261       O  0.98023770  0.84162269  0.54053101    -0.77600
C3262       C  0.94650871  0.86730658  0.68398506     0.84400
O3263       O  0.95325664  0.87856838  0.99019615    -0.77700
C3264       C  0.92934371  0.94386609  0.57815783     0.84500
C3265       C  0.86749554  0.85589983  0.61915372     0.84800
O3266       O  0.87385232  0.86986757  0.58726353    -0.80100
O3267       O  0.98668637  0.62857131  0.80508915    -0.77600
C3268       C  0.52025901  0.56446918  0.83009702     0.83400
O3269       O  0.90203331  0.03011978  0.74875220    -0.78700
O3270       O  0.93586472  0.98885981  0.85785118    -0.80200
O3271       O  0.94599093  0.58818203  0.91767406    -0.80000
O3272       O  0.94108637  0.62118777  0.83220081    -0.78600
Zn3273     Zn  0.97392472  0.58211139  0.79672763     1.55700
O3274       O  0.94647335  0.54243086  0.92170061    -0.80000
Cd3275     Cd  0.92372413  0.57540078  0.86421027     1.59700
Cd3276     Cd  0.91017675  0.01855034  0.80245654     1.59600
O3277       O  0.88129988  0.52927763  0.88360670    -0.80000
O3278       O  0.94214633  0.55625012  0.83136271    -1.90500
Cd3279     Cd  0.95634156  0.53644683  0.86755935     1.59900
O3280       O  0.87408647  0.99280103  0.83905758    -0.80000
O3281       O  0.50352830  0.55384428  0.86000193    -0.78600
C3282       C  0.92650903  0.54879680  0.72907593     0.83900
C3283       C  0.96764697  0.63892883  0.81336948     0.83600
O3284       O  0.01158985  0.57485936  0.80176783    -0.77600
C3285       C  0.94614035  0.56603834  0.93731125     0.84400
O3286       O  0.95396465  0.56753157  0.74435130    -0.77700
C3287       C  0.86840121  0.99961587  0.87199473     0.84500
C3288       C  0.93024749  0.97451167  0.82598608     0.84800
O3289       O  0.92584490  0.98636458  0.79586446    -0.80100
O3290       O  0.91730096  0.98146393  0.55140795    -0.77600
C3291       C  0.85223859  0.52381071  0.56056402     0.83400
O3292       O  0.96197314  0.59001891  0.99872668    -0.78700
O3293       O  0.96090823  0.61126767  0.63350397    -0.80200
O3294       O  0.94917617  0.54663080  0.67230467    -0.80000
O3295       O  0.93990510  0.99047558  0.60928734    -0.78600
Zn3296     Zn  0.91074429  0.51903495  0.54538190     1.55700
O3297       O  0.90319696  0.54694170  0.66776054    -0.80000
Cd3298     Cd  0.95600035  0.53732244  0.61817762     1.59700
Cd3299     Cd  0.47310136  0.58272891  0.55298729     1.59600
O3300       O  0.50401176  0.55882620  0.61079058    -0.80000
O3301       O  0.93556218  0.55068568  0.58133437    -1.90500
Cd3302     Cd  0.91511174  0.56813020  0.61389615     1.59900
O3303       O  0.50653989  0.56813889  0.54881909    -0.80000
O3304       O  0.86857069  0.54955198  0.58167763    -0.78600
C3305       C  0.94427532  0.56523104  0.97859395     0.83900
C3306       C  0.92836830  0.97329217  0.57950312     0.83600
O3307       O  0.86439912  0.50679491  0.55009842    -0.77600
C3308       C  0.92553669  0.54699200  0.68766768     0.84400
O3309       O  0.92608109  0.53785154  0.99344183    -0.77700
C3310       C  0.51836790  0.56392153  0.57924963     0.84500
C3311       C  0.49048307  0.62523468  0.62160462     0.84800
O3312       O  0.49732832  0.61999314  0.58852475    -0.80100
loop_ 
_geom_bond_atom_site_label_1 
_geom_bond_atom_site_label_2 
_geom_bond_distance 
_geom_bond_site_symmetry_2 
_ccdc_geom_bond_type 
O1           Zn7   2.008       .  S
O1          C845   1.272   1_545  A
C2           O18   1.272       .  A
C2          O429   1.275       .  A
C2          C482   1.443       .  S
O3           C16   1.271       .  A
O3          Cd10   2.052       .  S
O4           C22   1.267   1_554  A
O4          Cd13   2.054       .  S
O5           C19   1.277       .  A
O5           Cd9   2.087       .  S
O6          C431   1.309   1_554  A
O6         Cd837   2.239       .  S
Zn7          O18   1.992       .  S
Zn7          O20   2.022       .  S
Zn7          O12   1.874       .  S
O8           C19   1.269       .  A
O8          Cd13   2.026       .  S
Cd9          O11   2.227       .  S
Cd9         O834   2.239   1_545  S
Cd9         O426   1.941   1_554  S
Cd10         O14   2.009       .  S
Cd10         O23   2.042       .  S
Cd10         O12   1.961       .  S
O11          C21   1.297       .  A
O12        Cd423   1.941       .  S
O12        Cd427   1.930       .  S
Cd13         O15   2.036       .  S
Cd13        O426   1.930   1_554  S
O14         C435   1.269       .  A
O15         C416   1.275   1_554  A
C16          O20   1.278       .  A
C16          C42   1.456       .  S
C17         O829   1.272       .  A
C17         O420   1.309       .  A
C17         C275   1.503       .  S
C19          C39   1.456       .  S
C21         O428   1.269       .  A
C21         C393   1.504       .  S
C22         O437   1.271       .  A
C22         C548   1.442       .  S
O23         C436   1.271       .  A
O24         Zn30   2.008       .  S
O24          C40   1.275       .  A
C25          O38   1.309       .  A
C25         O869   1.275       .  A
C25         C159   1.506       .  S
O26          C39   1.272       .  A
O26         Cd33   2.053       .  S
O27          C45   1.301       .  A
O27         Cd36   2.235       .  S
O28          C42   1.266       .  A
O28         Cd32   2.015       .  S
O29          C40   1.271       .  A
O29         Cd32   2.013       .  S
Zn30         O41   2.018       .  S
Zn30         O43   2.026       .  S
Zn30         O35   1.864       .  S
O31          C42   1.276       .  A
O31         Cd36   2.094       .  S
Cd32         O34   2.018       .  S
Cd32         O35   1.918       .  S
Cd33         O37   2.042       .  S
Cd33         O46   2.002       .  S
Cd33         O35   1.962       .  S
O34          C44   1.267       .  A
O35         Cd36   1.947       .  S
Cd36        O866   2.240   1_545  S
O37          C44   1.271       .  A
O38        Cd864   2.240       .  S
C39          O43   1.279       .  A
C40         C113   1.445       .  S
O41         C853   1.275   1_545  A
C44          C86   1.443       .  S
C45          O46   1.267       .  A
C45         C293   1.501       .  S
O47         Zn53   2.043       .  S
O47          C63   1.279       .  A
C48          O64   1.280       .  A
C48         O475   1.266       .  A
C48         C546   1.447       .  S
O49          C62   1.273       .  A
O49         Cd56   2.059       .  S
O50          C68   1.265   1_554  A
O50         Cd59   2.014       .  S
O51          C65   1.277       .  A
O51         Cd55   2.096       .  S
O52         C477   1.310       .  A
O52         Cd55   2.243   1_556  S
Zn53         O64   2.034       .  S
Zn53         O66   2.022       .  S
Zn53         O58   1.867       .  S
O54          C65   1.265       .  A
O54         Cd59   2.002       .  S
Cd55         O57   2.233       .  S
Cd55        O472   1.940   1_554  S
Cd56         O60   2.014       .  S
Cd56         O69   2.054       .  S
Cd56         O58   1.963       .  S
O57          C67   1.300       .  A
O58        Cd469   1.940       .  S
O58        Cd473   1.921       .  S
Cd59         O61   1.991       .  S
Cd59        O472   1.921   1_554  S
O60         C481   1.270       .  A
O61         C462   1.268   1_554  A
C62          O66   1.278       .  A
C62          C88   1.458       .  S
C63         O466   1.310       .  A
C63         C183   1.515       .  S
C65          C85   1.453       .  S
C67         O474   1.270       .  A
C67         C301   1.504       .  S
C68         O483   1.272       .  A
C68         C416   1.443       .  S
O69         C482   1.272       .  A
O70         Zn76   2.006       .  S
O70          C86   1.273       .  A
C71          O87   1.274       .  A
C71          O84   1.308       .  A
C71         C228   1.506       .  S
O72          C85   1.271       .  A
O72         Cd79   2.051       .  S
O73          C91   1.299       .  A
O73         Cd82   2.226       .  S
O74          C88   1.267       .  A
O74         Cd78   2.020       .  S
O75          C86   1.271       .  A
O75         Cd78   2.011       .  S
Zn76         O87   2.016       .  S
Zn76         O89   2.016       .  S
Zn76         O81   1.870       .  S
O77          C88   1.277       .  A
O77         Cd82   2.099       .  S
Cd78         O80   2.025       .  S
Cd78         O81   1.918       .  S
Cd79         O83   2.060       .  S
Cd79         O92   1.998       .  S
Cd79         O81   1.971       .  S
O80          C90   1.268       .  A
O81         Cd82   1.949       .  S
Cd82         O84   2.238       .  S
O83          C90   1.271       .  A
C85          O89   1.278       .  A
C90         C109   1.450       .  S
C91          O92   1.268       .  A
C91         C339   1.497       .  S
O93         Zn99   2.031       .  S
O93         C109   1.275       .  A
C94         O107   1.312       .  A
C94        O1766   1.276   1_455  A
C94         C251   1.512       .  S
O95         C108   1.269       .  A
O95        Cd102   2.056       .  S
O96         C114   1.304       .  A
O96        Cd105   2.255       .  S
O97         C111   1.270       .  A
O97        Cd101   2.018       .  S
O98         C109   1.270       .  A
O98        Cd101   2.004       .  S
Zn99        O110   2.011       .  S
Zn99        O112   2.050       .  S
Zn99        O104   1.884       .  S
O100        C111   1.277       .  A
O100       Cd105   2.127       .  S
Cd101       O103   2.038       .  S
Cd101       O104   1.921       .  S
Cd102       O106   2.031       .  S
Cd102       O115   1.985       .  S
Cd102       O104   1.978       .  S
O103        C113   1.269       .  A
O104       Cd105   1.981       .  S
Cd105      O1763   2.264       .  S
O106        C113   1.269       .  A
O107      Cd1761   2.264   1_455  S
C108        O112   1.282       .  A
C108        C117   1.469       .  S
O110       C1750   1.276       .  A
C111        C136   1.478       .  S
C114        O115   1.264       .  A
C114        C385   1.502       .  S
O116       Zn122   1.957       .  S
O116        C132   1.269   1_554  A
C117        O133   1.263       .  A
C117        O130   1.281       .  A
O118        C545   1.308       .  A
O118       Cd125   2.262       .  S
O119       C2207   1.279       .  A
O119       Cd128   2.086   1_556  S
O120        C134   1.269       .  A
O120       Cd124   2.009       .  S
O121        C546   1.265       .  A
O121       Cd124   2.054       .  S
Zn122       O133   1.928       .  S
Zn122       O135   1.885       .  S
Zn122       O127   1.870       .  S
O123        C548   1.283   1_554  A
O123       Cd128   2.088       .  S
Cd124       O126   1.978       .  S
Cd124       O541   1.916       .  S
Cd125       O129   2.167       .  S
Cd125      O1794   2.210       .  S
Cd125       O541   1.954       .  S
O126        C136   1.266       .  A
O127       Cd128   1.968       .  S
O127       Cd538   1.916   1_554  S
O127       Cd539   1.954   1_554  S
Cd128       O130   2.131       .  S
O129        C136   1.283       .  A
C131        O135   1.256       .  A
C131        O532   1.308       .  A
C131        C347   1.502       .  S
C132        O535   1.266       .  A
C132        C462   1.447       .  S
C134        O537   1.283       .  A
C134        C436   1.442       .  S
C137        O138   1.307       .  A
C137       O2189   1.279   1_455  A
C137        C206   1.507       .  S
O138      Cd1781   2.210   1_455  S
O139       Zn145   2.001       .  S
O139        C155   1.272       .  A
C140        O156   1.273       .  A
C140        O153   1.271       .  A
C140        C229   1.447       .  S
O141        C154   1.272       .  A
O141       Cd148   2.059       .  S
O142        C160   1.267       .  A
O142       Cd151   2.011       .  S
O143        C157   1.277       .  A
O143       Cd147   2.102       .  S
O144        C155   1.309       .  A
O144       Cd147   2.231       .  S
Zn145       O156   2.014       .  S
Zn145       O158   2.015       .  S
Zn145       O150   1.875       .  S
O146        C157   1.266       .  A
O146       Cd151   2.019       .  S
Cd147       O149   2.235       .  S
Cd147       O150   1.945       .  S
Cd148       O152   2.014       .  S
Cd148       O161   2.045       .  S
Cd148       O150   1.970       .  S
O149        C159   1.299       .  A
O150       Cd151   1.905       .  S
Cd151       O153   2.013       .  S
O152        C159   1.268       .  A
C154        O158   1.278       .  A
C154        C180   1.454       .  S
C155        C367   1.497       .  S
C157        C177   1.459       .  S
C160        O161   1.271       .  A
C160        C232   1.442       .  S
O162       Zn168   2.019       .  S
O162        C178   1.274       .  A
C163        O179   1.273       .  A
C163        O176   1.311       .  A
C163        C389   1.510       .  S
O164        C177   1.274       .  A
O164       Cd171   2.068       .  S
O165        C183   1.302       .  A
O165       Cd174   2.249       .  S
O166        C180   1.265       .  A
O166       Cd584   2.007   1_554  S
O167        C178   1.271       .  A
O167       Cd170   2.011       .  S
Zn168       O179   2.015       .  S
Zn168       O181   2.022       .  S
Zn168       O173   1.884       .  S
O169        C180   1.276       .  A
O169       Cd588   2.098   1_554  S
Cd170       O172   2.013       .  S
Cd170       O580   2.007       .  S
Cd170       O173   1.915       .  S
Cd171       O175   2.053       .  S
Cd171       O184   2.027       .  S
Cd171       O173   1.974       .  S
O172        C182   1.266       .  A
O173       Cd174   1.952       .  S
Cd174       O176   2.252       .  S
Cd174       O583   2.098       .  S
O175        C182   1.272       .  A
C177        O181   1.279       .  A
C178        C274   1.449       .  S
C182        C201   1.444       .  S
C183        O184   1.270       .  A
O185       Zn191   2.005       .  S
O185        C201   1.272       .  A
C186        O202   1.274       .  A
C186        O199   1.309       .  A
C186        C297   1.503       .  S
O187        C200   1.271       .  A
O187       Cd194   2.050       .  S
O188        C206   1.301       .  A
O188       Cd197   2.234       .  S
O189        C203   1.267       .  A
O189       Cd607   2.021   1_554  S
O190        C201   1.272       .  A
O190       Cd193   2.014       .  S
Zn191       O202   2.010       .  S
Zn191       O204   2.016       .  S
Zn191       O196   1.873       .  S
O192        C203   1.277   1_556  A
O192       Cd611   2.100       .  S
Cd193       O195   2.022       .  S
Cd193       O603   2.021       .  S
Cd193       O196   1.916       .  S
Cd194       O198   2.043       .  S
Cd194       O207   2.000       .  S
Cd194       O196   1.966       .  S
O195        C205   1.268       .  A
O196       Cd197   1.952       .  S
Cd197       O199   2.237       .  S
Cd197       O606   2.100       .  S
O198        C205   1.271       .  A
C200        O204   1.277       .  A
C200        C226   1.452       .  S
C203        C223   1.458       .  S
C205        C270   1.443       .  S
C206        O207   1.267       .  A
O208       Zn214   2.016       .  S
O208        C224   1.274       .  A
C209        O225   1.273       .  A
C209        O222   1.271       .  A
C209        C252   1.447       .  S
O210        C223   1.273       .  A
O210       Cd217   2.062       .  S
O211        C229   1.267       .  A
O211       Cd220   2.020       .  S
O212        C226   1.274       .  A
O212       Cd216   2.086       .  S
O213        C224   1.309       .  A
O213       Cd216   2.235       .  S
Zn214       O225   2.014       .  S
Zn214       O227   2.024       .  S
Zn214       O219   1.877       .  S
O215        C226   1.266       .  A
O215       Cd220   2.017       .  S
Cd216       O218   2.237       .  S
Cd216       O219   1.950       .  S
Cd217       O221   2.016       .  S
Cd217       O230   2.055       .  S
Cd217       O219   1.970       .  S
O218        C228   1.300       .  A
O219       Cd220   1.916       .  S
Cd220       O222   2.012       .  S
O221        C228   1.269       .  A
C223        O227   1.279       .  A
C224        C413   1.503   1_455  S
C229        O230   1.272       .  A
O231       Zn237   2.011       .  S
O231        C247   1.274       .  A
C232        O248   1.273       .  A
C232        O245   1.270       .  A
O233        C246   1.271       .  A
O233       Cd240   2.054       .  S
O234        C252   1.266       .  A
O234       Cd243   2.015       .  S
O235        C249   1.275       .  A
O235       Cd239   2.095       .  S
O236        C247   1.311       .  A
O236       Cd239   2.251       .  S
Zn237       O248   2.009       .  S
Zn237       O250   2.020       .  S
Zn237       O242   1.878       .  S
O238        C249   1.266       .  A
O238       Cd243   2.015       .  S
Cd239       O241   2.253       .  S
Cd239       O242   1.950       .  S
Cd240       O244   2.006       .  S
Cd240       O253   2.054       .  S
Cd240       O242   1.972       .  S
O241        C251   1.302       .  A
O242       Cd243   1.912       .  S
Cd243       O245   2.000       .  S
O244        C251   1.268       .  A
C246        O250   1.278       .  A
C246        C272   1.455       .  S
C247        C321   1.507       .  S
C249        C269   1.456       .  S
C252        O253   1.272       .  A
O254       Zn260   2.013       .  S
O254        C270   1.274       .  A
C255        O271   1.275       .  A
C255        O268   1.309       .  A
C255        C343   1.506   1_455  S
O256        C269   1.273       .  A
O256       Cd263   2.058       .  S
O257        C275   1.301       .  A
O257       Cd266   2.235       .  S
O258        C272   1.265       .  A
O258       Cd676   2.012   1_554  S
O259        C270   1.270       .  A
O259       Cd262   2.003       .  S
Zn260       O271   2.014       .  S
Zn260       O273   2.023       .  S
Zn260       O265   1.869       .  S
O261        C272   1.276   1_556  A
O261       Cd680   2.094       .  S
Cd262       O264   2.019       .  S
Cd262       O672   2.012       .  S
Cd262       O265   1.914       .  S
Cd263       O267   2.056       .  S
Cd263       O276   2.006       .  S
Cd263       O265   1.968       .  S
O264        C274   1.267       .  A
O265       Cd266   1.955       .  S
Cd266       O268   2.241       .  S
Cd266       O675   2.094       .  S
O267        C274   1.271       .  A
C269        O273   1.279       .  A
C275        O276   1.268       .  A
O277       Zn283   2.008       .  S
O277        C293   1.273       .  A
C278        O294   1.273       .  A
C278        O291   1.272       .  A
C278        C344   1.445       .  S
O279        C292   1.272       .  A
O279       Cd286   2.055       .  S
O280        C298   1.267       .  A
O280       Cd289   2.017       .  S
O281        C295   1.276       .  A
O281       Cd285   2.095       .  S
O282        C293   1.310       .  A
O282       Cd285   2.238       .  S
Zn283       O296   2.027       .  S
Zn283      O1122   2.010   1_545  S
Zn283       O288   1.878       .  S
O284        C295   1.266       .  A
O284       Cd289   2.015       .  S
Cd285       O287   2.237       .  S
Cd285       O288   1.951       .  S
Cd286       O290   2.003       .  S
Cd286       O299   2.044       .  S
Cd286       O288   1.969       .  S
O287        C297   1.300       .  A
O288       Cd289   1.911       .  S
Cd289      O1119   2.013   1_545  S
O290        C297   1.266       .  A
O291      Cd1117   2.013       .  S
C292        O296   1.279       .  A
C292        C318   1.457       .  S
O294      Zn1111   2.010       .  S
C295        C315   1.455       .  S
C298        O299   1.271       .  A
C298        C370   1.443       .  S
O300       Zn306   2.009       .  S
O300        C316   1.273       .  A
C301        O317   1.273       .  A
C301        O314   1.310       .  A
O302       C1143   1.272       .  A
O302       Cd723   2.052       .  S
O303       C1149   1.300       .  A
O303       Cd312   2.238       .  S
O304        C318   1.266       .  A
O304       Cd308   2.019       .  S
O305        C316   1.272       .  A
O305       Cd308   2.017       .  S
Zn306       O317   2.009       .  S
Zn306       O733   2.023   1_554  S
Zn306       O311   1.873       .  S
O307        C318   1.277       .  A
O307       Cd312   2.096       .  S
Cd308      O1138   2.018   1_545  S
Cd308       O311   1.909       .  S
Cd309       O313   2.050       .  S
Cd309       O322   2.010       .  S
Cd309       O716   2.052   1_554  S
Cd309      O1139   1.966       .  S
O310        C320   1.267       .  A
O310      Cd1136   2.018       .  S
O311       Cd312   1.947       .  S
O311      Cd1137   1.966       .  S
Cd312       O314   2.242       .  S
O313        C320   1.271       .  A
C315        O319   1.279       .  A
C315       O1130   1.272       .  A
C316        C412   1.446       .  S
O319       Zn720   2.023       .  S
C320        C362   1.444       .  S
C321        O322   1.268       .  A
C321       O1131   1.300       .  A
O323       Zn329   2.011       .  S
O323        C339   1.275       .  A
C324        O340   1.274       .  A
C324        O337   1.269       .  A
C324        C390   1.442       .  S
O325        C338   1.272       .  A
O325      Cd1988   2.062       .  S
O326        C344   1.265       .  A
O326      Cd1991   2.013   1_455  S
O327        C341   1.274       .  A
O327       Cd331   2.090       .  S
O328        C339   1.307       .  A
O328       Cd331   2.223       .  S
Zn329       O340   2.016       .  S
Zn329       O342   2.028       .  S
Zn329       O334   1.875       .  S
O330        C341   1.265       .  A
O330       Cd335   2.007       .  S
Cd331       O333   2.235       .  S
Cd331       O334   1.950       .  S
Cd332       O336   2.014       .  S
Cd332       O345   2.058   1_655  S
Cd332      O1981   2.062       .  S
Cd332      O1990   1.972       .  S
O333       C1999   1.300       .  A
O334       Cd335   1.914       .  S
O334      Cd1988   1.972       .  S
Cd335       O337   1.997       .  S
Cd335      O1982   2.013       .  S
O336        C343   1.270       .  A
C338        O342   1.279       .  A
C338        C364   1.459       .  S
C341        C361   1.452       .  S
C343       O1989   1.300       .  A
C344        O345   1.272       .  A
O346       Zn352   2.022       .  S
O346       C2018   1.275       .  A
C347        O363   1.275       .  A
C347        O360   1.308       .  A
O348        C361   1.273       .  A
O348       Cd769   2.060       .  S
O349        C367   1.296       .  A
O349       Cd358   2.211       .  S
O350        C364   1.266       .  A
O350       Cd354   2.017       .  S
O351        C362   1.271       .  A
O351      Cd2010   2.000   1_455  S
Zn352       O363   2.028       .  S
Zn352       O779   2.000   1_554  S
Zn352       O357   1.893       .  S
O353        C364   1.276       .  A
O353       Cd358   2.100       .  S
Cd354       O356   2.014       .  S
Cd354      O2007   2.000       .  S
Cd354       O357   1.908       .  S
Cd355       O359   2.036       .  S
Cd355       O368   2.012       .  S
Cd355       O762   2.060   1_554  S
Cd355       O357   1.965       .  S
O356        C366   1.266       .  A
O357       Cd358   1.938       .  S
Cd358       O360   2.196       .  S
O359        C366   1.270       .  A
C361        O365   1.276       .  A
C362       O2002   1.275       .  A
O365       Zn766   2.000       .  S
C366        C408   1.440       .  S
C367        O368   1.267       .  A
O369       Zn375   2.020       .  S
O369        C385   1.274       .  A
C370        O383   1.270       .  A
C370       O2042   1.273       .  A
O371       C1212   1.274       .  A
O371       Cd378   2.060       .  S
O372        C390   1.268       .  A
O372      Cd1209   2.016       .  S
O373        C387   1.275       .  A
O373       Cd377   2.088       .  S
O374        C385   1.310       .  A
O374       Cd377   2.238       .  S
Zn375       O386   2.011       .  S
Zn375       O388   2.024       .  S
Zn375       O380   1.868       .  S
O376        C387   1.266       .  A
O376       Cd381   2.017       .  S
Cd377       O379   2.245       .  S
Cd377       O380   1.943       .  S
Cd378       O382   2.019       .  S
Cd378       O391   2.044       .  S
Cd378      O1208   1.965       .  S
O379       C1217   1.302   1_545  A
O380       Cd381   1.907       .  S
O380      Cd1206   1.965       .  S
Cd381      O1200   2.016   1_545  S
Cd381      O2039   2.002       .  S
O382        C389   1.269       .  A
O383      Cd2037   2.002   1_455  S
C384        O388   1.279       .  A
C384       O1199   1.274       .  A
C384        C410   1.456       .  S
O386       C2026   1.273       .  A
C387        C407   1.453       .  S
C389       O1207   1.302       .  A
C390        O391   1.270       .  A
O392      Zn1226   1.995       .  S
O392        C408   1.272       .  A
C393        O409   1.274       .  A
C393        O406   1.309       .  A
O394        C407   1.272       .  A
O394      Cd2471   2.056       .  S
O395       C2069   1.301       .  A
O395       Cd404   2.241       .  S
O396        C410   1.266       .  A
O396       Cd400   2.018       .  S
O397        C408   1.271       .  A
O397      Cd1228   2.006       .  S
Zn398       O409   2.002       .  S
Zn398      O1220   1.995   1_545  S
Zn398       O825   2.013   1_554  S
Zn398       O403   1.867       .  S
O399        C410   1.275       .  A
O399       Cd404   2.096       .  S
Cd400      O1225   2.006   1_545  S
Cd400      O2058   2.016       .  S
Cd400       O403   1.917       .  S
Cd401       O405   2.052   1_655  S
Cd401       O414   2.002       .  S
Cd401      O2464   2.056   1_554  S
Cd401      O2059   1.966       .  S
O402        C412   1.267       .  A
O402      Cd2056   2.016   1_455  S
O403       Cd404   1.950       .  S
O403      Cd2057   1.966       .  S
Cd404       O406   2.243       .  S
O405        C412   1.272       .  A
C407        O411   1.277       .  A
O411       Zn812   2.013       .  S
C413        O414   1.268       .  A
C413       O2051   1.301       .  A
O415       Zn421   2.008       .  S
O415       C1259   1.272   1_545  A
C416        O432   1.272       .  A
O417        C430   1.271       .  A
O417       Cd424   2.052       .  S
O418        C436   1.267       .  A
O418       Cd427   2.054       .  S
O419        C433   1.277       .  A
O419       Cd423   2.087       .  S
O420      Cd1251   2.239       .  S
Zn421       O432   1.992       .  S
Zn421       O434   2.022       .  S
Zn421       O426   1.874       .  S
O422        C433   1.269       .  A
O422       Cd427   2.026       .  S
Cd423      O1248   2.239   1_545  S
Cd423       O425   2.227       .  S
Cd424       O428   2.009   1_556  S
Cd424       O437   2.042       .  S
Cd424       O426   1.961       .  S
O425        C435   1.297       .  A
Cd427       O429   2.036       .  S
C430        O434   1.278       .  A
C430        C456   1.456       .  S
C431       O1243   1.272       .  A
C431        C689   1.503       .  S
C433        C453   1.456       .  S
C435        C807   1.504       .  S
O438       Zn444   2.008       .  S
O438        C454   1.275       .  A
C439       O1283   1.275       .  A
C439        O452   1.309       .  A
C439        C573   1.506       .  S
O440        C453   1.272       .  A
O440       Cd447   2.053       .  S
O441        C459   1.301       .  A
O441       Cd450   2.235       .  S
O442        C456   1.266       .  A
O442       Cd446   2.015       .  S
O443        C454   1.271       .  A
O443       Cd446   2.013       .  S
Zn444       O455   2.018       .  S
Zn444       O457   2.026       .  S
Zn444       O449   1.864       .  S
O445        C456   1.276       .  A
O445       Cd450   2.094       .  S
Cd446       O448   2.018       .  S
Cd446       O449   1.918       .  S
Cd447       O451   2.042       .  S
Cd447       O460   2.002       .  S
Cd447       O449   1.962       .  S
O448        C458   1.267       .  A
O449       Cd450   1.947       .  S
Cd450      O1280   2.240   1_545  S
O451        C458   1.271       .  A
O452      Cd1278   2.240       .  S
C453        O457   1.279       .  A
C454        C527   1.445       .  S
O455       C1267   1.275   1_545  A
C458        C500   1.443       .  S
C459        O460   1.267       .  A
C459        C707   1.501       .  S
O461       Zn467   2.043       .  S
O461        C477   1.279       .  A
C462        O478   1.278       .  A
O463        C476   1.273       .  A
O463       Cd470   2.059       .  S
O464        C482   1.265       .  A
O464       Cd473   2.014       .  S
O465        C479   1.277       .  A
O465       Cd469   2.096       .  S
O466       Cd469   2.243       .  S
Zn467       O478   2.034       .  S
Zn467       O480   2.022       .  S
Zn467       O472   1.867       .  S
O468        C479   1.265       .  A
O468       Cd473   2.002       .  S
Cd469       O471   2.233       .  S
Cd470       O474   2.014   1_556  S
Cd470       O483   2.054       .  S
Cd470       O472   1.963       .  S
O471        C481   1.300       .  A
Cd473       O475   1.991       .  S
C476        O480   1.278       .  A
C476        C502   1.458       .  S
C477        C597   1.515       .  S
C479        C499   1.453       .  S
C481        C715   1.504       .  S
O484       Zn490   2.006       .  S
O484        C500   1.273       .  A
C485        O501   1.274       .  A
C485        O498   1.308       .  A
C485        C642   1.506       .  S
O486        C499   1.271       .  A
O486       Cd493   2.051       .  S
O487        C505   1.299       .  A
O487       Cd496   2.226       .  S
O488        C502   1.267       .  A
O488       Cd492   2.020       .  S
O489        C500   1.271       .  A
O489       Cd492   2.011       .  S
Zn490       O501   2.016       .  S
Zn490       O503   2.016       .  S
Zn490       O495   1.870       .  S
O491        C502   1.277       .  A
O491       Cd496   2.099       .  S
Cd492       O494   2.025       .  S
Cd492       O495   1.918       .  S
Cd493       O497   2.060       .  S
Cd493       O506   1.998       .  S
Cd493       O495   1.971       .  S
O494        C504   1.268       .  A
O495       Cd496   1.949       .  S
Cd496       O498   2.238       .  S
O497        C504   1.272       .  A
C499        O503   1.278       .  A
C504        C523   1.450       .  S
C505        O506   1.268       .  A
C505        C753   1.497       .  S
O507       Zn513   2.031       .  S
O507        C523   1.275       .  A
C508       O2180   1.276   1_455  A
C508        O521   1.312       .  A
C508        C665   1.512       .  S
O509        C522   1.269       .  A
O509       Cd516   2.056       .  S
O510        C528   1.304       .  A
O510       Cd519   2.255       .  S
O511        C525   1.270       .  A
O511       Cd515   2.018       .  S
O512        C523   1.270       .  A
O512       Cd515   2.004       .  S
Zn513       O524   2.011       .  S
Zn513       O526   2.050       .  S
Zn513       O518   1.884       .  S
O514        C525   1.277       .  A
O514       Cd519   2.127       .  S
Cd515       O517   2.038       .  S
Cd515       O518   1.921       .  S
Cd516       O520   2.031       .  S
Cd516       O529   1.985       .  S
Cd516       O518   1.978       .  S
O517        C527   1.269       .  A
O518       Cd519   1.981       .  S
Cd519      O2177   2.264       .  S
O520        C527   1.269       .  A
O521      Cd2175   2.264   1_455  S
C522        O526   1.282       .  A
C522        C531   1.469       .  S
O524       C2164   1.276       .  A
C525        C550   1.478       .  S
C528        O529   1.264       .  A
C528        C799   1.502       .  S
O530       Zn536   1.957       .  S
O530        C546   1.270       .  A
C531        O547   1.263       .  A
C531        O544   1.281       .  A
O532       Cd539   2.262   1_554  S
O533       C1793   1.279       .  A
O533       Cd542   2.086       .  S
O534        C548   1.269       .  A
O534       Cd538   2.009       .  S
O535       Cd538   2.054       .  S
Zn536       O547   1.928       .  S
Zn536       O549   1.885       .  S
Zn536       O541   1.870       .  S
O537       Cd542   2.088       .  S
Cd538       O540   1.978       .  S
Cd539       O543   2.167       .  S
Cd539      O2208   2.210       .  S
O540        C550   1.266       .  A
O541       Cd542   1.968       .  S
Cd542       O544   2.131       .  S
O543        C550   1.283       .  A
C545        O549   1.256       .  A
C545        C761   1.502       .  S
C551       O1775   1.279   1_455  A
C551        O552   1.307       .  A
C551        C620   1.507       .  S
O552      Cd2195   2.210   1_455  S
O553       Zn559   2.001       .  S
O553        C569   1.272       .  A
C554        O570   1.273       .  A
C554        O567   1.271       .  A
C554        C643   1.447       .  S
O555        C568   1.272       .  A
O555       Cd562   2.059       .  S
O556        C574   1.267       .  A
O556       Cd565   2.011       .  S
O557        C571   1.277       .  A
O557       Cd561   2.102       .  S
O558        C569   1.309       .  A
O558       Cd561   2.231       .  S
Zn559       O570   2.014       .  S
Zn559       O572   2.015       .  S
Zn559       O564   1.875       .  S
O560        C571   1.266       .  A
O560       Cd565   2.019       .  S
Cd561       O563   2.235       .  S
Cd561       O564   1.945       .  S
Cd562       O566   2.014       .  S
Cd562       O575   2.045       .  S
Cd562       O564   1.970       .  S
O563        C573   1.299       .  A
O564       Cd565   1.905       .  S
Cd565       O567   2.013       .  S
O566        C573   1.268       .  A
C568        O572   1.278       .  A
C568        C594   1.454       .  S
C569        C781   1.497       .  S
C571        C591   1.459       .  S
C574        O575   1.271       .  A
C574        C646   1.442       .  S
O576       Zn582   2.019       .  S
O576        C592   1.274       .  A
C577        O593   1.273       .  A
C577        O590   1.311       .  A
C577        C803   1.510       .  S
O578        C591   1.274       .  A
O578       Cd585   2.068       .  S
O579        C597   1.302       .  A
O579       Cd588   2.249       .  S
O580        C594   1.265       .  A
O581        C592   1.271       .  A
O581       Cd584   2.011       .  S
Zn582       O593   2.015       .  S
Zn582       O595   2.022       .  S
Zn582       O587   1.884       .  S
O583        C594   1.276       .  A
Cd584       O586   2.013       .  S
Cd584       O587   1.915       .  S
Cd585       O589   2.053       .  S
Cd585       O598   2.027       .  S
Cd585       O587   1.974       .  S
O586        C596   1.266       .  A
O587       Cd588   1.952       .  S
Cd588       O590   2.252       .  S
O589        C596   1.272       .  A
C591        O595   1.279       .  A
C592        C688   1.449       .  S
C596        C615   1.444       .  S
C597        O598   1.270       .  A
O599       Zn605   2.005       .  S
O599        C615   1.272       .  A
C600        O616   1.274       .  A
C600        O613   1.309       .  A
C600        C711   1.503       .  S
O601        C614   1.271       .  A
O601       Cd608   2.050       .  S
O602        C620   1.301       .  A
O602       Cd611   2.234       .  S
O603        C617   1.267       .  A
O604        C615   1.272       .  A
O604       Cd607   2.014       .  S
Zn605       O616   2.010       .  S
Zn605       O618   2.016       .  S
Zn605       O610   1.873       .  S
O606        C617   1.277       .  A
Cd607       O609   2.022       .  S
Cd607       O610   1.916       .  S
Cd608       O612   2.043       .  S
Cd608       O621   2.000       .  S
Cd608       O610   1.966       .  S
O609        C619   1.268       .  A
O610       Cd611   1.952       .  S
Cd611       O613   2.237       .  S
O612        C619   1.271       .  A
C614        O618   1.277       .  A
C614        C640   1.452       .  S
C617        C637   1.458       .  S
C619        C684   1.443       .  S
C620        O621   1.267       .  A
O622       Zn628   2.016       .  S
O622        C638   1.274       .  A
C623        O639   1.274       .  A
C623        O636   1.271       .  A
C623        C666   1.447       .  S
O624        C637   1.273       .  A
O624       Cd631   2.062       .  S
O625        C643   1.267       .  A
O625       Cd634   2.020       .  S
O626        C640   1.274       .  A
O626       Cd630   2.086       .  S
O627        C638   1.309       .  A
O627       Cd630   2.235       .  S
Zn628       O639   2.014       .  S
Zn628       O641   2.024       .  S
Zn628       O633   1.877       .  S
O629        C640   1.266       .  A
O629       Cd634   2.017       .  S
Cd630       O632   2.237       .  S
Cd630       O633   1.950       .  S
Cd631       O635   2.016       .  S
Cd631       O644   2.055       .  S
Cd631       O633   1.970       .  S
O632        C642   1.300       .  A
O633       Cd634   1.916       .  S
Cd634       O636   2.012       .  S
O635        C642   1.269       .  A
C637        O641   1.279       .  A
C638        C827   1.503   1_455  S
C643        O644   1.272       .  A
O645       Zn651   2.011       .  S
O645        C661   1.274       .  A
C646        O662   1.273       .  A
C646        O659   1.270       .  A
O647        C660   1.271       .  A
O647       Cd654   2.054       .  S
O648        C666   1.266       .  A
O648       Cd657   2.015       .  S
O649        C663   1.275       .  A
O649       Cd653   2.095       .  S
O650        C661   1.311       .  A
O650       Cd653   2.251       .  S
Zn651       O662   2.009       .  S
Zn651       O664   2.020       .  S
Zn651       O656   1.878       .  S
O652        C663   1.266       .  A
O652       Cd657   2.015       .  S
Cd653       O655   2.253       .  S
Cd653       O656   1.950       .  S
Cd654       O658   2.006       .  S
Cd654       O667   2.054       .  S
Cd654       O656   1.972       .  S
O655        C665   1.302       .  A
O656       Cd657   1.912       .  S
Cd657       O659   2.000       .  S
O658        C665   1.268       .  A
C660        O664   1.278       .  A
C660        C686   1.455       .  S
C661        C735   1.507       .  S
C663        C683   1.456       .  S
C666        O667   1.272       .  A
O668       Zn674   2.013       .  S
O668        C684   1.274       .  A
C669        O685   1.275       .  A
C669        O682   1.309       .  A
C669        C757   1.506   1_455  S
O670        C683   1.273       .  A
O670       Cd677   2.058       .  S
O671        C689   1.301       .  A
O671       Cd680   2.235       .  S
O672        C686   1.265       .  A
O673        C684   1.270       .  A
O673       Cd676   2.003       .  S
Zn674       O685   2.014       .  S
Zn674       O687   2.023       .  S
Zn674       O679   1.869       .  S
O675        C686   1.276       .  A
Cd676       O678   2.019       .  S
Cd676       O679   1.914       .  S
Cd677       O681   2.056       .  S
Cd677       O690   2.006       .  S
Cd677       O679   1.968       .  S
O678        C688   1.267       .  A
O679       Cd680   1.955       .  S
Cd680       O682   2.241       .  S
O681        C688   1.271       .  A
C683        O687   1.279       .  A
C689        O690   1.268       .  A
O691       Zn697   2.008       .  S
O691        C707   1.273       .  A
C692        O708   1.273       .  A
C692        O705   1.272       .  A
C692        C758   1.445       .  S
O693        C706   1.272       .  A
O693       Cd700   2.055       .  S
O694        C712   1.267       .  A
O694       Cd703   2.017       .  S
O695        C709   1.276       .  A
O695       Cd699   2.095       .  S
O696        C707   1.310       .  A
O696       Cd699   2.238       .  S
Zn697      O1536   2.010   1_545  S
Zn697       O710   2.027       .  S
Zn697       O702   1.878       .  S
O698        C709   1.266       .  A
O698       Cd703   2.015       .  S
Cd699       O701   2.237       .  S
Cd699       O702   1.951       .  S
Cd700       O704   2.003       .  S
Cd700       O713   2.044       .  S
Cd700       O702   1.969       .  S
O701        C711   1.300       .  A
O702       Cd703   1.911       .  S
Cd703      O1533   2.013   1_545  S
O704        C711   1.266       .  A
O705      Cd1531   2.013       .  S
C706        O710   1.279       .  A
C706        C732   1.457       .  S
O708      Zn1525   2.010       .  S
C709        C729   1.455       .  S
C712        O713   1.271       .  A
C712        C784   1.443       .  S
O714       Zn720   2.009       .  S
O714        C730   1.273       .  A
C715        O731   1.273       .  A
C715        O728   1.310       .  A
O716       C1557   1.272       .  A
O717       C1563   1.300       .  A
O717       Cd726   2.238       .  S
O718        C732   1.266       .  A
O718       Cd722   2.019       .  S
O719        C730   1.272       .  A
O719       Cd722   2.017       .  S
Zn720       O731   2.009       .  S
Zn720       O725   1.873       .  S
O721        C732   1.277       .  A
O721       Cd726   2.096       .  S
Cd722      O1552   2.018   1_545  S
Cd722       O725   1.909       .  S
Cd723       O727   2.050       .  S
Cd723       O736   2.010       .  S
Cd723      O1553   1.966       .  S
O724        C734   1.267       .  A
O724      Cd1550   2.018       .  S
O725      Cd1551   1.966       .  S
O725       Cd726   1.947       .  S
Cd726       O728   2.242       .  S
O727        C734   1.271       .  A
C729       O1544   1.272       .  A
C729        O733   1.279       .  A
C730        C826   1.446       .  S
C734        C776   1.444       .  S
C735       O1545   1.300       .  A
C735        O736   1.268       .  A
O737       Zn743   2.011       .  S
O737        C753   1.275       .  A
C738        O754   1.274       .  A
C738        O751   1.269       .  A
C738        C804   1.442       .  S
O739        C752   1.272       .  A
O739      Cd2402   2.062       .  S
O740        C758   1.265       .  A
O740      Cd2405   2.013   1_455  S
O741        C755   1.274       .  A
O741       Cd745   2.090       .  S
O742        C753   1.307       .  A
O742       Cd745   2.223       .  S
Zn743       O754   2.016       .  S
Zn743       O756   2.028       .  S
Zn743       O748   1.875       .  S
O744        C755   1.265       .  A
O744       Cd749   2.007       .  S
Cd745       O747   2.235       .  S
Cd745       O748   1.950       .  S
Cd746      O2395   2.062       .  S
Cd746       O750   2.014       .  S
Cd746       O759   2.058   1_655  S
Cd746      O2404   1.972       .  S
O747       C2413   1.300       .  A
O748      Cd2402   1.972       .  S
O748       Cd749   1.914       .  S
Cd749      O2396   2.013       .  S
Cd749       O751   1.997       .  S
O750        C757   1.270       .  A
C752        O756   1.279       .  A
C752        C778   1.459       .  S
C755        C775   1.452       .  S
C757       O2403   1.300       .  A
C758        O759   1.272       .  A
O760       Zn766   2.022       .  S
O760       C2432   1.275       .  A
C761        O777   1.275       .  A
C761        O774   1.308       .  A
O762        C775   1.273       .  A
O763        C781   1.296       .  A
O763       Cd772   2.211       .  S
O764        C778   1.266       .  A
O764       Cd768   2.017       .  S
O765        C776   1.271       .  A
O765      Cd2424   2.000   1_455  S
Zn766       O777   2.028       .  S
Zn766       O771   1.893       .  S
O767        C778   1.276       .  A
O767       Cd772   2.100       .  S
Cd768      O2421   2.000       .  S
Cd768       O770   2.014       .  S
Cd768       O771   1.908       .  S
Cd769       O773   2.036       .  S
Cd769       O782   2.012       .  S
Cd769       O771   1.965       .  S
O770        C780   1.266       .  A
O771       Cd772   1.938       .  S
Cd772       O774   2.196       .  S
O773        C780   1.270       .  A
C775        O779   1.276       .  A
C776       O2416   1.275       .  A
C780        C822   1.440       .  S
C781        O782   1.267       .  A
O783       Zn789   2.020       .  S
O783        C799   1.274       .  A
C784       O2456   1.273       .  A
C784        O797   1.270       .  A
O785       C1626   1.274       .  A
O785       Cd792   2.060       .  S
O786        C804   1.268       .  A
O786      Cd1623   2.016       .  S
O787        C801   1.275       .  A
O787       Cd791   2.088       .  S
O788        C799   1.310       .  A
O788       Cd791   2.238       .  S
Zn789       O800   2.011       .  S
Zn789       O802   2.024       .  S
Zn789       O794   1.868       .  S
O790        C801   1.266       .  A
O790       Cd795   2.017       .  S
Cd791       O793   2.245       .  S
Cd791       O794   1.943       .  S
Cd792       O796   2.019       .  S
Cd792       O805   2.044       .  S
Cd792      O1622   1.965       .  S
O793       C1631   1.302   1_545  A
O794      Cd1620   1.965       .  S
O794       Cd795   1.907       .  S
Cd795      O1614   2.016   1_545  S
Cd795      O2453   2.002       .  S
O796        C803   1.269       .  A
O797      Cd2451   2.002   1_455  S
C798       O1613   1.274       .  A
C798        O802   1.279       .  A
C798        C824   1.456       .  S
O800       C2440   1.273       .  A
C801        C821   1.453       .  S
C803       O1621   1.302       .  A
C804        O805   1.270       .  A
O806      Zn1640   1.995       .  S
O806        C822   1.272       .  A
C807        O823   1.274       .  A
C807        O820   1.309       .  A
O808        C821   1.272       .  A
O808      Cd2057   2.056   1_556  S
O809       C2483   1.301       .  A
O809       Cd818   2.241       .  S
O810        C824   1.266       .  A
O810       Cd814   2.018       .  S
O811        C822   1.271       .  A
O811      Cd1642   2.006       .  S
Zn812      O1634   1.995   1_545  S
Zn812       O823   2.002       .  S
Zn812       O817   1.867       .  S
O813        C824   1.275       .  A
O813       Cd818   2.096       .  S
Cd814      O1639   2.006   1_545  S
Cd814      O2472   2.016       .  S
Cd814       O817   1.917       .  S
Cd815      O2050   2.056       .  S
Cd815       O819   2.052   1_655  S
Cd815       O828   2.002       .  S
Cd815      O2473   1.966       .  S
O816        C826   1.267       .  A
O816      Cd2470   2.016   1_455  S
O817      Cd2471   1.966       .  S
O817       Cd818   1.950       .  S
Cd818       O820   2.243       .  S
O819        C826   1.272       .  A
C821        O825   1.277       .  A
C827       O2465   1.301       .  A
C827        O828   1.268       .  A
O829       Zn835   2.008       .  S
C830        O846   1.272       .  A
C830       O1257   1.275       .  A
C830       C1310   1.443       .  S
O831        C844   1.271       .  A
O831       Cd838   2.052       .  S
O832        C850   1.267   1_554  A
O832       Cd841   2.054       .  S
O833        C847   1.277       .  A
O833       Cd837   2.087       .  S
O834       C1259   1.309   1_554  A
Zn835       O846   1.992       .  S
Zn835       O848   2.022       .  S
Zn835       O840   1.874       .  S
O836        C847   1.269       .  A
O836       Cd841   2.026       .  S
Cd837       O839   2.227       .  S
Cd837      O1254   1.941   1_554  S
Cd838       O842   2.009       .  S
Cd838       O851   2.042       .  S
Cd838       O840   1.961       .  S
O839        C849   1.297       .  A
O840      Cd1251   1.941       .  S
O840      Cd1255   1.930       .  S
Cd841       O843   2.036       .  S
Cd841      O1254   1.930   1_554  S
O842       C1263   1.269       .  A
O843       C1244   1.275   1_554  A
C844        O848   1.278       .  A
C844        C870   1.456       .  S
C845       O1248   1.309       .  A
C845       C1103   1.503       .  S
C847        C867   1.456       .  S
C849       O1256   1.269       .  A
C849       C1221   1.504       .  S
C850       O1265   1.271       .  A
C850       C1376   1.442       .  S
O851       C1264   1.271       .  A
O852       Zn858   2.008       .  S
O852        C868   1.275       .  A
C853        O866   1.309       .  A
C853        C987   1.506       .  S
O854        C867   1.272       .  A
O854       Cd861   2.053       .  S
O855        C873   1.301       .  A
O855       Cd864   2.235       .  S
O856        C870   1.266       .  A
O856       Cd860   2.015       .  S
O857        C868   1.271       .  A
O857       Cd860   2.013       .  S
Zn858       O869   2.018       .  S
Zn858       O871   2.026       .  S
Zn858       O863   1.864       .  S
O859        C870   1.276       .  A
O859       Cd864   2.094       .  S
Cd860       O862   2.018       .  S
Cd860       O863   1.918       .  S
Cd861       O865   2.042       .  S
Cd861       O874   2.002       .  S
Cd861       O863   1.962       .  S
O862        C872   1.267       .  A
O863       Cd864   1.947       .  S
O865        C872   1.271       .  A
C867        O871   1.279       .  A
C868        C941   1.445       .  S
C872        C914   1.443       .  S
C873        O874   1.267       .  A
C873       C1121   1.501       .  S
O875       Zn881   2.043       .  S
O875        C891   1.279       .  A
C876        O892   1.280       .  A
C876       O1303   1.266       .  A
C876       C1374   1.447       .  S
O877        C890   1.273       .  A
O877       Cd884   2.059       .  S
O878        C896   1.265   1_554  A
O878       Cd887   2.014       .  S
O879        C893   1.277       .  A
O879       Cd883   2.096       .  S
O880       C1305   1.310       .  A
O880       Cd883   2.243   1_556  S
Zn881       O892   2.034       .  S
Zn881       O894   2.022       .  S
Zn881       O886   1.867       .  S
O882        C893   1.265       .  A
O882       Cd887   2.002       .  S
Cd883       O885   2.233       .  S
Cd883      O1300   1.940   1_554  S
Cd884       O888   2.014       .  S
Cd884       O897   2.054       .  S
Cd884       O886   1.963       .  S
O885        C895   1.300       .  A
O886      Cd1297   1.940       .  S
O886      Cd1301   1.921       .  S
Cd887       O889   1.991       .  S
Cd887      O1300   1.921   1_554  S
O888       C1309   1.270       .  A
O889       C1290   1.268   1_554  A
C890        O894   1.278       .  A
C890        C916   1.458       .  S
C891       O1294   1.310       .  A
C891       C1011   1.515       .  S
C893        C913   1.453       .  S
C895       O1302   1.270       .  A
C895       C1129   1.504       .  S
C896       O1311   1.272       .  A
C896       C1244   1.443       .  S
O897       C1310   1.272       .  A
O898       Zn904   2.006       .  S
O898        C914   1.273       .  A
C899        O915   1.274       .  A
C899        O912   1.308       .  A
C899       C1056   1.506       .  S
O900        C913   1.271       .  A
O900       Cd907   2.051       .  S
O901        C919   1.299       .  A
O901       Cd910   2.226       .  S
O902        C916   1.267       .  A
O902       Cd906   2.020       .  S
O903        C914   1.271       .  A
O903       Cd906   2.011       .  S
Zn904       O915   2.016       .  S
Zn904       O917   2.016       .  S
Zn904       O909   1.870       .  S
O905        C916   1.277       .  A
O905       Cd910   2.099       .  S
Cd906       O908   2.025       .  S
Cd906       O909   1.918       .  S
Cd907       O911   2.060       .  S
Cd907       O920   1.998       .  S
Cd907       O909   1.971       .  S
O908        C918   1.268       .  A
O909       Cd910   1.949       .  S
Cd910       O912   2.238       .  S
O911        C918   1.271       .  A
C913        O917   1.278       .  A
C918        C937   1.450       .  S
C919        O920   1.268       .  A
C919       C1167   1.497       .  S
O921       Zn927   2.031       .  S
O921        C937   1.275       .  A
C922       O2594   1.276   1_455  A
C922        O935   1.312       .  A
C922       C1079   1.512       .  S
O923        C936   1.269       .  A
O923       Cd930   2.056       .  S
O924        C942   1.304       .  A
O924       Cd933   2.255       .  S
O925        C939   1.270       .  A
O925       Cd929   2.018       .  S
O926        C937   1.270       .  A
O926       Cd929   2.004       .  S
Zn927       O938   2.011       .  S
Zn927       O940   2.050       .  S
Zn927       O932   1.884       .  S
O928        C939   1.277       .  A
O928       Cd933   2.127       .  S
Cd929       O931   2.038       .  S
Cd929       O932   1.921       .  S
Cd930       O934   2.031       .  S
Cd930       O943   1.985       .  S
Cd930       O932   1.978       .  S
O931        C941   1.269       .  A
O932       Cd933   1.981       .  S
Cd933      O2591   2.264       .  S
O934        C941   1.269       .  A
O935      Cd2589   2.264   1_455  S
C936        O940   1.282       .  A
C936        C945   1.469       .  S
O938       C2578   1.276       .  A
C939        C964   1.478       .  S
C942        O943   1.264       .  A
C942       C1213   1.502       .  S
O944       Zn950   1.957       .  S
O944        C960   1.269   1_554  A
C945        O961   1.263       .  A
C945        O958   1.281       .  A
O946       C1373   1.308       .  A
O946       Cd953   2.262       .  S
O947       C3035   1.279       .  A
O947       Cd956   2.086   1_556  S
O948        C962   1.269       .  A
O948       Cd952   2.009       .  S
O949       C1374   1.265       .  A
O949       Cd952   2.054       .  S
Zn950       O961   1.928       .  S
Zn950       O963   1.885       .  S
Zn950       O955   1.870       .  S
O951       C1376   1.283   1_554  A
O951       Cd956   2.088       .  S
Cd952       O954   1.978       .  S
Cd952      O1369   1.916       .  S
Cd953       O957   2.167       .  S
Cd953      O2622   2.210       .  S
Cd953      O1369   1.954       .  S
O954        C964   1.266       .  A
O955      Cd1366   1.916   1_554  S
O955      Cd1367   1.954   1_554  S
O955       Cd956   1.968       .  S
Cd956       O958   2.131       .  S
O957        C964   1.283       .  A
C959       O1360   1.308       .  A
C959        O963   1.256       .  A
C959       C1175   1.502       .  S
C960       O1363   1.266       .  A
C960       C1290   1.447       .  S
C962       O1365   1.283       .  A
C962       C1264   1.442       .  S
C965       O3017   1.279   1_455  A
C965        O966   1.307       .  A
C965       C1034   1.507       .  S
O966      Cd2609   2.210   1_455  S
O967       Zn973   2.001       .  S
O967        C983   1.272       .  A
C968        O984   1.273       .  A
C968        O981   1.271       .  A
C968       C1057   1.447       .  S
O969        C982   1.272       .  A
O969       Cd976   2.059       .  S
O970        C988   1.267       .  A
O970       Cd979   2.011       .  S
O971        C985   1.277       .  A
O971       Cd975   2.102       .  S
O972        C983   1.309       .  A
O972       Cd975   2.231       .  S
Zn973       O984   2.014       .  S
Zn973       O986   2.015       .  S
Zn973       O978   1.875       .  S
O974        C985   1.266       .  A
O974       Cd979   2.019       .  S
Cd975       O977   2.235       .  S
Cd975       O978   1.945       .  S
Cd976       O980   2.014       .  S
Cd976       O989   2.045       .  S
Cd976       O978   1.970       .  S
O977        C987   1.299       .  A
O978       Cd979   1.905       .  S
Cd979       O981   2.013       .  S
O980        C987   1.268       .  A
C982        O986   1.278       .  A
C982       C1008   1.454       .  S
C983       C1195   1.497       .  S
C985       C1005   1.459       .  S
C988        O989   1.271       .  A
C988       C1060   1.442       .  S
O990       Zn996   2.019       .  S
O990       C1006   1.274       .  A
C991       O1007   1.273       .  A
C991       O1004   1.311       .  A
C991       C1217   1.510       .  S
O992       C1005   1.274       .  A
O992       Cd999   2.068       .  S
O993       C1011   1.302       .  A
O993      Cd1002   2.249       .  S
O994       C1008   1.265       .  A
O994      Cd1412   2.007   1_554  S
O995       C1006   1.271       .  A
O995       Cd998   2.011       .  S
Zn996      O1007   2.015       .  S
Zn996      O1009   2.022       .  S
Zn996      O1001   1.884       .  S
O997       C1008   1.276       .  A
O997      Cd1416   2.098   1_554  S
Cd998      O1408   2.007       .  S
Cd998      O1000   2.013       .  S
Cd998      O1001   1.915       .  S
Cd999      O1003   2.053       .  S
Cd999      O1012   2.027       .  S
Cd999      O1001   1.974       .  S
O1000      C1010   1.266       .  A
O1001     Cd1002   1.952       .  S
Cd1002     O1411   2.098       .  S
Cd1002     O1004   2.252       .  S
O1003      C1010   1.272       .  A
C1005      O1009   1.278       .  A
C1006      C1102   1.449       .  S
C1010      C1029   1.444       .  S
C1011      O1012   1.270       .  A
O1013     Zn1019   2.005       .  S
O1013      C1029   1.272       .  A
C1014      O1030   1.274       .  A
C1014      O1027   1.309       .  A
C1014      C1125   1.503       .  S
O1015      C1028   1.271       .  A
O1015     Cd1022   2.050       .  S
O1016      C1034   1.301       .  A
O1016     Cd1025   2.234       .  S
O1017      C1031   1.267       .  A
O1017     Cd1435   2.021   1_554  S
O1018      C1029   1.272       .  A
O1018     Cd1021   2.014       .  S
Zn1019     O1030   2.010       .  S
Zn1019     O1032   2.016       .  S
Zn1019     O1024   1.873       .  S
O1020      C1031   1.277   1_556  A
O1020     Cd1439   2.100       .  S
Cd1021     O1431   2.021       .  S
Cd1021     O1023   2.022       .  S
Cd1021     O1024   1.916       .  S
Cd1022     O1026   2.043       .  S
Cd1022     O1035   2.000       .  S
Cd1022     O1024   1.966       .  S
O1023      C1033   1.268       .  A
O1024     Cd1025   1.952       .  S
Cd1025     O1434   2.100       .  S
Cd1025     O1027   2.237       .  S
O1026      C1033   1.271       .  A
C1028      O1032   1.277       .  A
C1028      C1054   1.452       .  S
C1031      C1051   1.458       .  S
C1033      C1098   1.443       .  S
C1034      O1035   1.267       .  A
O1036     Zn1042   2.016       .  S
O1036      C1052   1.274       .  A
C1037      O1053   1.273       .  A
C1037      O1050   1.271       .  A
C1037      C1080   1.447       .  S
O1038      C1051   1.273       .  A
O1038     Cd1045   2.062       .  S
O1039      C1057   1.267       .  A
O1039     Cd1048   2.020       .  S
O1040      C1054   1.274       .  A
O1040     Cd1044   2.086       .  S
O1041      C1052   1.309       .  A
O1041     Cd1044   2.235       .  S
Zn1042     O1053   2.014       .  S
Zn1042     O1055   2.024       .  S
Zn1042     O1047   1.877       .  S
O1043      C1054   1.266       .  A
O1043     Cd1048   2.017       .  S
Cd1044     O1046   2.237       .  S
Cd1044     O1047   1.950       .  S
Cd1045     O1049   2.016       .  S
Cd1045     O1058   2.055       .  S
Cd1045     O1047   1.970       .  S
O1046      C1056   1.300       .  A
O1047     Cd1048   1.916       .  S
Cd1048     O1050   2.012       .  S
O1049      C1056   1.269       .  A
C1051      O1055   1.279       .  A
C1052      C1241   1.503   1_455  S
C1057      O1058   1.272       .  A
O1059     Zn1065   2.011       .  S
O1059      C1075   1.274       .  A
C1060      O1076   1.273       .  A
C1060      O1073   1.270       .  A
O1061      C1074   1.271       .  A
O1061     Cd1068   2.054       .  S
O1062      C1080   1.266       .  A
O1062     Cd1071   2.015       .  S
O1063      C1077   1.275       .  A
O1063     Cd1067   2.095       .  S
O1064      C1075   1.311       .  A
O1064     Cd1067   2.251       .  S
Zn1065     O1076   2.009       .  S
Zn1065     O1078   2.020       .  S
Zn1065     O1070   1.878       .  S
O1066      C1077   1.266       .  A
O1066     Cd1071   2.015       .  S
Cd1067     O1069   2.253       .  S
Cd1067     O1070   1.950       .  S
Cd1068     O1072   2.006       .  S
Cd1068     O1081   2.054       .  S
Cd1068     O1070   1.972       .  S
O1069      C1079   1.302       .  A
O1070     Cd1071   1.912       .  S
Cd1071     O1073   2.000       .  S
O1072      C1079   1.268       .  A
C1074      O1078   1.278       .  A
C1074      C1100   1.455       .  S
C1075      C1149   1.507   1_565  S
C1077      C1097   1.456       .  S
C1080      O1081   1.272       .  A
O1082     Zn1088   2.013       .  S
O1082      C1098   1.274       .  A
C1083      O1099   1.275       .  A
C1083      O1096   1.309       .  A
C1083      C1171   1.506   1_455  S
O1084      C1097   1.273       .  A
O1084     Cd1091   2.058       .  S
O1085      C1103   1.301       .  A
O1085     Cd1094   2.235       .  S
O1086      C1100   1.265       .  A
O1086     Cd1504   2.012   1_554  S
O1087      C1098   1.270       .  A
O1087     Cd1090   2.003       .  S
Zn1088     O1099   2.014       .  S
Zn1088     O1101   2.023       .  S
Zn1088     O1093   1.869       .  S
O1089      C1100   1.276   1_556  A
O1089     Cd1508   2.094       .  S
Cd1090     O1500   2.012       .  S
Cd1090     O1092   2.019       .  S
Cd1090     O1093   1.914       .  S
Cd1091     O1095   2.056       .  S
Cd1091     O1104   2.006       .  S
Cd1091     O1093   1.968       .  S
O1092      C1102   1.267       .  A
O1093     Cd1094   1.955       .  S
Cd1094     O1503   2.094       .  S
Cd1094     O1096   2.241       .  S
O1095      C1102   1.271       .  A
C1097      O1101   1.279       .  A
C1103      O1104   1.268       .  A
O1105     Zn1111   2.008       .  S
O1105      C1121   1.273       .  A
C1106      O1122   1.273       .  A
C1106      O1119   1.272       .  A
C1106      C1172   1.445       .  S
O1107      C1120   1.272       .  A
O1107     Cd1114   2.055       .  S
O1108      C1126   1.267       .  A
O1108     Cd1117   2.017       .  S
O1109      C1123   1.276       .  A
O1109     Cd1113   2.095       .  S
O1110      C1121   1.310       .  A
O1110     Cd1113   2.238       .  S
Zn1111     O1124   2.027       .  S
Zn1111     O1116   1.878       .  S
O1112      C1123   1.266       .  A
O1112     Cd1117   2.015       .  S
Cd1113     O1115   2.237       .  S
Cd1113     O1116   1.951       .  S
Cd1114     O1118   2.003       .  S
Cd1114     O1127   2.044       .  S
Cd1114     O1116   1.969       .  S
O1115      C1125   1.300       .  A
O1116     Cd1117   1.911       .  S
O1118      C1125   1.266       .  A
C1120      O1124   1.279       .  A
C1120      C1146   1.457       .  S
C1123      C1143   1.455       .  S
C1126      O1127   1.271       .  A
C1126      C1198   1.443       .  S
O1128     Zn1134   2.009       .  S
O1128      C1144   1.273       .  A
C1129      O1145   1.273       .  A
C1129      O1142   1.310       .  A
O1130     Cd1551   2.052       .  S
O1131     Cd1140   2.238       .  S
O1132      C1146   1.266       .  A
O1132     Cd1136   2.019       .  S
O1133      C1144   1.272       .  A
O1133     Cd1136   2.017       .  S
Zn1134     O1145   2.009       .  S
Zn1134     O1561   2.023   1_554  S
Zn1134     O1139   1.873       .  S
O1135      C1146   1.277       .  A
O1135     Cd1140   2.096       .  S
Cd1136     O1139   1.909       .  S
Cd1137     O1544   2.052   1_554  S
Cd1137     O1141   2.050   1_545  S
Cd1137     O1150   2.010   1_545  S
O1138      C1148   1.267       .  A
O1139     Cd1140   1.947       .  S
Cd1140     O1142   2.242       .  S
O1141      C1148   1.271       .  A
C1143      O1147   1.279       .  A
C1144      C1240   1.446       .  S
O1147     Zn1548   2.023       .  S
C1148      C1190   1.444       .  S
C1149      O1150   1.268   1_545  A
O1151     Zn1157   2.011       .  S
O1151      C1167   1.275       .  A
C1152      O1168   1.274       .  A
C1152      O1165   1.269       .  A
C1152      C1218   1.442       .  S
O1153      C1166   1.272       .  A
O1153     Cd2816   2.062       .  S
O1154      C1172   1.265       .  A
O1154     Cd2819   2.013   1_455  S
O1155      C1169   1.274       .  A
O1155     Cd1159   2.090       .  S
O1156      C1167   1.307       .  A
O1156     Cd1159   2.223       .  S
Zn1157     O1168   2.016       .  S
Zn1157     O1170   2.028       .  S
Zn1157     O1162   1.875       .  S
O1158      C1169   1.265       .  A
O1158     Cd1163   2.007       .  S
Cd1159     O1161   2.235       .  S
Cd1159     O1162   1.950       .  S
Cd1160     O2809   2.062       .  S
Cd1160     O1164   2.014       .  S
Cd1160     O1173   2.058   1_655  S
Cd1160     O2818   1.972       .  S
O1161      C2827   1.300       .  A
O1162     Cd2816   1.972       .  S
O1162     Cd1163   1.914       .  S
Cd1163     O2810   2.013       .  S
Cd1163     O1165   1.997       .  S
O1164      C1171   1.270       .  A
C1166      O1170   1.279       .  A
C1166      C1192   1.459       .  S
C1169      C1189   1.452       .  S
C1171      O2817   1.300       .  A
C1172      O1173   1.272       .  A
O1174     Zn1180   2.022       .  S
O1174      C2846   1.275       .  A
C1175      O1191   1.275       .  A
C1175      O1188   1.308       .  A
O1176      C1189   1.273       .  A
O1176     Cd1597   2.060       .  S
O1177      C1195   1.296       .  A
O1177     Cd1186   2.211       .  S
O1178      C1192   1.266       .  A
O1178     Cd1182   2.017       .  S
O1179      C1190   1.271       .  A
O1179     Cd2838   2.000   1_455  S
Zn1180     O1191   2.028       .  S
Zn1180     O1607   2.000   1_554  S
Zn1180     O1185   1.893       .  S
O1181      C1192   1.276       .  A
O1181     Cd1186   2.100       .  S
Cd1182     O2835   2.000       .  S
Cd1182     O1184   2.014       .  S
Cd1182     O1185   1.908       .  S
Cd1183     O1590   2.060   1_554  S
Cd1183     O1187   2.036       .  S
Cd1183     O1196   2.012       .  S
Cd1183     O1185   1.965       .  S
O1184      C1194   1.266       .  A
O1185     Cd1186   1.938       .  S
Cd1186     O1188   2.196       .  S
O1187      C1194   1.270       .  A
C1189      O1193   1.276       .  A
C1190      O2830   1.275       .  A
O1193     Zn1594   2.000       .  S
C1194      C1236   1.440       .  S
C1195      O1196   1.267       .  A
O1197     Zn1203   2.020       .  S
O1197      C1213   1.274       .  A
C1198      O2870   1.273       .  A
C1198      O1211   1.270       .  A
O1199     Cd1206   2.060       .  S
O1200      C1218   1.268       .  A
O1201      C1215   1.275       .  A
O1201     Cd1205   2.088       .  S
O1202      C1213   1.310       .  A
O1202     Cd1205   2.238       .  S
Zn1203     O1214   2.011       .  S
Zn1203     O1216   2.024       .  S
Zn1203     O1208   1.868       .  S
O1204      C1215   1.266       .  A
O1204     Cd1209   2.017       .  S
Cd1205     O1207   2.245       .  S
Cd1205     O1208   1.943       .  S
Cd1206     O1210   2.019   1_545  S
Cd1206     O1219   2.044   1_545  S
O1208     Cd1209   1.907       .  S
Cd1209     O2867   2.002       .  S
O1210      C1217   1.269       .  A
O1211     Cd2865   2.002   1_455  S
C1212      O1216   1.279       .  A
C1212      C1238   1.456       .  S
O1214      C2854   1.273       .  A
C1215      C1235   1.453       .  S
C1218      O1219   1.270       .  A
O1220      C1236   1.272       .  A
C1221      O1237   1.274       .  A
C1221      O1234   1.309       .  A
O1222      C1235   1.272       .  A
O1222     Cd3299   2.056       .  S
O1223      C2897   1.301       .  A
O1223     Cd1232   2.241       .  S
O1224      C1238   1.266       .  A
O1224     Cd1228   2.018       .  S
O1225      C1236   1.271       .  A
Zn1226     O1237   2.003       .  S
Zn1226     O1653   2.013   1_554  S
Zn1226     O1231   1.867       .  S
O1227      C1238   1.275       .  A
O1227     Cd1232   2.096       .  S
Cd1228     O2886   2.016       .  S
Cd1228     O1231   1.917       .  S
Cd1229     O3292   2.056   1_554  S
Cd1229     O1233   2.052   1_655  S
Cd1229     O1242   2.002       .  S
Cd1229     O2887   1.966       .  S
O1230      C1240   1.267       .  A
O1230     Cd2884   2.016   1_455  S
O1231     Cd2885   1.966       .  S
O1231     Cd1232   1.950       .  S
Cd1232     O1234   2.243       .  S
O1233      C1240   1.272       .  A
C1235      O1239   1.277       .  A
O1239     Zn1640   2.013       .  S
C1241      O2879   1.301       .  A
C1241      O1242   1.268       .  A
O1243     Zn1249   2.008       .  S
C1244      O1260   1.272       .  A
O1245      C1258   1.271       .  A
O1245     Cd1252   2.052       .  S
O1246      C1264   1.267       .  A
O1246     Cd1255   2.054       .  S
O1247      C1261   1.277       .  A
O1247     Cd1251   2.087       .  S
Zn1249     O1260   1.992       .  S
Zn1249     O1262   2.022       .  S
Zn1249     O1254   1.874       .  S
O1250      C1261   1.269       .  A
O1250     Cd1255   2.026       .  S
Cd1251     O1253   2.227       .  S
Cd1252     O1256   2.009   1_556  S
Cd1252     O1265   2.042       .  S
Cd1252     O1254   1.961       .  S
O1253      C1263   1.297       .  A
Cd1255     O1257   2.036       .  S
C1258      O1262   1.278       .  A
C1258      C1284   1.456       .  S
C1259      C1517   1.503       .  S
C1261      C1281   1.456       .  S
C1263      C1635   1.504       .  S
O1266     Zn1272   2.008       .  S
O1266      C1282   1.275       .  A
C1267      O1280   1.309       .  A
C1267      C1401   1.506       .  S
O1268      C1281   1.272       .  A
O1268     Cd1275   2.053       .  S
O1269      C1287   1.301       .  A
O1269     Cd1278   2.235       .  S
O1270      C1284   1.266       .  A
O1270     Cd1274   2.015       .  S
O1271      C1282   1.271       .  A
O1271     Cd1274   2.013       .  S
Zn1272     O1283   2.018       .  S
Zn1272     O1285   2.026       .  S
Zn1272     O1277   1.864       .  S
O1273      C1284   1.276       .  A
O1273     Cd1278   2.094       .  S
Cd1274     O1276   2.018       .  S
Cd1274     O1277   1.918       .  S
Cd1275     O1279   2.042       .  S
Cd1275     O1288   2.002       .  S
Cd1275     O1277   1.962       .  S
O1276      C1286   1.267       .  A
O1277     Cd1278   1.947       .  S
O1279      C1286   1.271       .  A
C1281      O1285   1.279       .  A
C1282      C1355   1.445       .  S
C1286      C1328   1.443       .  S
C1287      O1288   1.267       .  A
C1287      C1535   1.501       .  S
O1289     Zn1295   2.043       .  S
O1289      C1305   1.279       .  A
C1290      O1306   1.278       .  A
O1291      C1304   1.273       .  A
O1291     Cd1298   2.059       .  S
O1292      C1310   1.265       .  A
O1292     Cd1301   2.014       .  S
O1293      C1307   1.277       .  A
O1293     Cd1297   2.096       .  S
O1294     Cd1297   2.243       .  S
Zn1295     O1306   2.034       .  S
Zn1295     O1308   2.022       .  S
Zn1295     O1300   1.867       .  S
O1296      C1307   1.265       .  A
O1296     Cd1301   2.002       .  S
Cd1297     O1299   2.233       .  S
Cd1298     O1302   2.014   1_556  S
Cd1298     O1311   2.054       .  S
Cd1298     O1300   1.963       .  S
O1299      C1309   1.300       .  A
Cd1301     O1303   1.991       .  S
C1304      O1308   1.278       .  A
C1304      C1330   1.458       .  S
C1305      C1425   1.515       .  S
C1307      C1327   1.453       .  S
C1309      C1543   1.504       .  S
O1312     Zn1318   2.006       .  S
O1312      C1328   1.273       .  A
C1313      O1329   1.274       .  A
C1313      O1326   1.308       .  A
C1313      C1470   1.506       .  S
O1314      C1327   1.271       .  A
O1314     Cd1321   2.051       .  S
O1315      C1333   1.299       .  A
O1315     Cd1324   2.226       .  S
O1316      C1330   1.267       .  A
O1316     Cd1320   2.020       .  S
O1317      C1328   1.271       .  A
O1317     Cd1320   2.011       .  S
Zn1318     O1329   2.016       .  S
Zn1318     O1331   2.016       .  S
Zn1318     O1323   1.870       .  S
O1319      C1330   1.277       .  A
O1319     Cd1324   2.099       .  S
Cd1320     O1322   2.025       .  S
Cd1320     O1323   1.918       .  S
Cd1321     O1325   2.060       .  S
Cd1321     O1334   1.998       .  S
Cd1321     O1323   1.971       .  S
O1322      C1332   1.268       .  A
O1323     Cd1324   1.949       .  S
Cd1324     O1326   2.238       .  S
O1325      C1332   1.272       .  A
C1327      O1331   1.278       .  A
C1332      C1351   1.450       .  S
C1333      O1334   1.268       .  A
C1333      C1581   1.497       .  S
O1335     Zn1341   2.031       .  S
O1335      C1351   1.275       .  A
C1336      O3008   1.276   1_455  A
C1336      O1349   1.312       .  A
C1336      C1493   1.512       .  S
O1337      C1350   1.269       .  A
O1337     Cd1344   2.056       .  S
O1338      C1356   1.304       .  A
O1338     Cd1347   2.255       .  S
O1339      C1353   1.270       .  A
O1339     Cd1343   2.018       .  S
O1340      C1351   1.270       .  A
O1340     Cd1343   2.004       .  S
Zn1341     O1352   2.011       .  S
Zn1341     O1354   2.050       .  S
Zn1341     O1346   1.884       .  S
O1342      C1353   1.277       .  A
O1342     Cd1347   2.127       .  S
Cd1343     O1345   2.038       .  S
Cd1343     O1346   1.921       .  S
Cd1344     O1348   2.031       .  S
Cd1344     O1357   1.985       .  S
Cd1344     O1346   1.978       .  S
O1345      C1355   1.269       .  A
O1346     Cd1347   1.981       .  S
Cd1347     O3005   2.264       .  S
O1348      C1355   1.269       .  A
O1349     Cd3003   2.264   1_455  S
C1350      O1354   1.282       .  A
C1350      C1359   1.469       .  S
O1352      C2992   1.276       .  A
C1353      C1378   1.478       .  S
C1356      O1357   1.264       .  A
C1356      C1627   1.502       .  S
O1358     Zn1364   1.957       .  S
O1358      C1374   1.270       .  A
C1359      O1375   1.263       .  A
C1359      O1372   1.281       .  A
O1360     Cd1367   2.262   1_554  S
O1361      C2621   1.279       .  A
O1361     Cd1370   2.086       .  S
O1362      C1376   1.269       .  A
O1362     Cd1366   2.009       .  S
O1363     Cd1366   2.054       .  S
Zn1364     O1375   1.928       .  S
Zn1364     O1377   1.885       .  S
Zn1364     O1369   1.870       .  S
O1365     Cd1370   2.088       .  S
Cd1366     O1368   1.978       .  S
Cd1367     O1371   2.167       .  S
Cd1367     O3036   2.210       .  S
O1368      C1378   1.266       .  A
O1369     Cd1370   1.968       .  S
Cd1370     O1372   2.131       .  S
O1371      C1378   1.283       .  A
C1373      O1377   1.256       .  A
C1373      C1589   1.502       .  S
C1379      O2603   1.279   1_455  A
C1379      O1380   1.307       .  A
C1379      C1448   1.507       .  S
O1380     Cd3023   2.210   1_455  S
O1381     Zn1387   2.001       .  S
O1381      C1397   1.272       .  A
C1382      O1398   1.273       .  A
C1382      O1395   1.271       .  A
C1382      C1471   1.447       .  S
O1383      C1396   1.272       .  A
O1383     Cd1390   2.059       .  S
O1384      C1402   1.267       .  A
O1384     Cd1393   2.011       .  S
O1385      C1399   1.277       .  A
O1385     Cd1389   2.102       .  S
O1386      C1397   1.309       .  A
O1386     Cd1389   2.231       .  S
Zn1387     O1398   2.014       .  S
Zn1387     O1400   2.015       .  S
Zn1387     O1392   1.875       .  S
O1388      C1399   1.266       .  A
O1388     Cd1393   2.019       .  S
Cd1389     O1391   2.235       .  S
Cd1389     O1392   1.945       .  S
Cd1390     O1394   2.014       .  S
Cd1390     O1403   2.045       .  S
Cd1390     O1392   1.970       .  S
O1391      C1401   1.299       .  A
O1392     Cd1393   1.905       .  S
Cd1393     O1395   2.013       .  S
O1394      C1401   1.268       .  A
C1396      O1400   1.278       .  A
C1396      C1422   1.454       .  S
C1397      C1609   1.497       .  S
C1399      C1419   1.459       .  S
C1402      O1403   1.271       .  A
C1402      C1474   1.442       .  S
O1404     Zn1410   2.019       .  S
O1404      C1420   1.274       .  A
C1405      O1421   1.273       .  A
C1405      O1418   1.311       .  A
C1405      C1631   1.510       .  S
O1406      C1419   1.274       .  A
O1406     Cd1413   2.068       .  S
O1407      C1425   1.302       .  A
O1407     Cd1416   2.249       .  S
O1408      C1422   1.265       .  A
O1409      C1420   1.271       .  A
O1409     Cd1412   2.011       .  S
Zn1410     O1421   2.015       .  S
Zn1410     O1423   2.022       .  S
Zn1410     O1415   1.884       .  S
O1411      C1422   1.276       .  A
Cd1412     O1414   2.013       .  S
Cd1412     O1415   1.915       .  S
Cd1413     O1417   2.053       .  S
Cd1413     O1426   2.027       .  S
Cd1413     O1415   1.974       .  S
O1414      C1424   1.266       .  A
O1415     Cd1416   1.952       .  S
Cd1416     O1418   2.252       .  S
O1417      C1424   1.272       .  A
C1419      O1423   1.279       .  A
C1420      C1516   1.449       .  S
C1424      C1443   1.444       .  S
C1425      O1426   1.270       .  A
O1427     Zn1433   2.005       .  S
O1427      C1443   1.272       .  A
C1428      O1444   1.274       .  A
C1428      O1441   1.309       .  A
C1428      C1539   1.503       .  S
O1429      C1442   1.271       .  A
O1429     Cd1436   2.050       .  S
O1430      C1448   1.301       .  A
O1430     Cd1439   2.234       .  S
O1431      C1445   1.267       .  A
O1432      C1443   1.272       .  A
O1432     Cd1435   2.014       .  S
Zn1433     O1444   2.010       .  S
Zn1433     O1446   2.016       .  S
Zn1433     O1438   1.873       .  S
O1434      C1445   1.277       .  A
Cd1435     O1437   2.022       .  S
Cd1435     O1438   1.916       .  S
Cd1436     O1440   2.043       .  S
Cd1436     O1449   2.000       .  S
Cd1436     O1438   1.966       .  S
O1437      C1447   1.268       .  A
O1438     Cd1439   1.952       .  S
Cd1439     O1441   2.237       .  S
O1440      C1447   1.271       .  A
C1442      O1446   1.277       .  A
C1442      C1468   1.452       .  S
C1445      C1465   1.458       .  S
C1447      C1512   1.443       .  S
C1448      O1449   1.267       .  A
O1450     Zn1456   2.016       .  S
O1450      C1466   1.274       .  A
C1451      O1467   1.273       .  A
C1451      O1464   1.271       .  A
C1451      C1494   1.447       .  S
O1452      C1465   1.273       .  A
O1452     Cd1459   2.062       .  S
O1453      C1471   1.267       .  A
O1453     Cd1462   2.020       .  S
O1454      C1468   1.274       .  A
O1454     Cd1458   2.086       .  S
O1455      C1466   1.309       .  A
O1455     Cd1458   2.235       .  S
Zn1456     O1467   2.014       .  S
Zn1456     O1469   2.024       .  S
Zn1456     O1461   1.877       .  S
O1457      C1468   1.266       .  A
O1457     Cd1462   2.017       .  S
Cd1458     O1460   2.237       .  S
Cd1458     O1461   1.950       .  S
Cd1459     O1463   2.016       .  S
Cd1459     O1472   2.055       .  S
Cd1459     O1461   1.970       .  S
O1460      C1470   1.300       .  A
O1461     Cd1462   1.916       .  S
Cd1462     O1464   2.012       .  S
O1463      C1470   1.269       .  A
C1465      O1469   1.279       .  A
C1466      C1655   1.503   1_455  S
C1471      O1472   1.272       .  A
O1473     Zn1479   2.011       .  S
O1473      C1489   1.274       .  A
C1474      O1490   1.273       .  A
C1474      O1487   1.270       .  A
O1475      C1488   1.271       .  A
O1475     Cd1482   2.054       .  S
O1476      C1494   1.266       .  A
O1476     Cd1485   2.015       .  S
O1477      C1491   1.275       .  A
O1477     Cd1481   2.095       .  S
O1478      C1489   1.311       .  A
O1478     Cd1481   2.251       .  S
Zn1479     O1490   2.009       .  S
Zn1479     O1492   2.020       .  S
Zn1479     O1484   1.878       .  S
O1480      C1491   1.266       .  A
O1480     Cd1485   2.015       .  S
Cd1481     O1483   2.253       .  S
Cd1481     O1484   1.950       .  S
Cd1482     O1486   2.006       .  S
Cd1482     O1495   2.054       .  S
Cd1482     O1484   1.972       .  S
O1483      C1493   1.302       .  A
O1484     Cd1485   1.912       .  S
Cd1485     O1487   2.000       .  S
O1486      C1493   1.268       .  A
C1488      O1492   1.278       .  A
C1488      C1514   1.455       .  S
C1489      C1563   1.507   1_565  S
C1491      C1511   1.456       .  S
C1494      O1495   1.272       .  A
O1496     Zn1502   2.013       .  S
O1496      C1512   1.274       .  A
C1497      O1513   1.275       .  A
C1497      O1510   1.309       .  A
C1497      C1585   1.506   1_455  S
O1498      C1511   1.273       .  A
O1498     Cd1505   2.058       .  S
O1499      C1517   1.301       .  A
O1499     Cd1508   2.235       .  S
O1500      C1514   1.265       .  A
O1501      C1512   1.270       .  A
O1501     Cd1504   2.003       .  S
Zn1502     O1513   2.014       .  S
Zn1502     O1515   2.023       .  S
Zn1502     O1507   1.869       .  S
O1503      C1514   1.276       .  A
Cd1504     O1506   2.019       .  S
Cd1504     O1507   1.914       .  S
Cd1505     O1509   2.056       .  S
Cd1505     O1518   2.006       .  S
Cd1505     O1507   1.968       .  S
O1506      C1516   1.267       .  A
O1507     Cd1508   1.955       .  S
Cd1508     O1510   2.241       .  S
O1509      C1516   1.271       .  A
C1511      O1515   1.279       .  A
C1517      O1518   1.268       .  A
O1519     Zn1525   2.008       .  S
O1519      C1535   1.273       .  A
C1520      O1536   1.273       .  A
C1520      O1533   1.272       .  A
C1520      C1586   1.445       .  S
O1521      C1534   1.272       .  A
O1521     Cd1528   2.055       .  S
O1522      C1540   1.267       .  A
O1522     Cd1531   2.017       .  S
O1523      C1537   1.276       .  A
O1523     Cd1527   2.095       .  S
O1524      C1535   1.310       .  A
O1524     Cd1527   2.238       .  S
Zn1525     O1538   2.027       .  S
Zn1525     O1530   1.878       .  S
O1526      C1537   1.266       .  A
O1526     Cd1531   2.015       .  S
Cd1527     O1529   2.237       .  S
Cd1527     O1530   1.951       .  S
Cd1528     O1532   2.003       .  S
Cd1528     O1541   2.044       .  S
Cd1528     O1530   1.969       .  S
O1529      C1539   1.300       .  A
O1530     Cd1531   1.911       .  S
O1532      C1539   1.266       .  A
C1534      O1538   1.279       .  A
C1534      C1560   1.457       .  S
C1537      C1557   1.455       .  S
C1540      O1541   1.271       .  A
C1540      C1612   1.443       .  S
O1542     Zn1548   2.009       .  S
O1542      C1558   1.273       .  A
C1543      O1559   1.273       .  A
C1543      O1556   1.310       .  A
O1545     Cd1554   2.238       .  S
O1546      C1560   1.266       .  A
O1546     Cd1550   2.019       .  S
O1547      C1558   1.272       .  A
O1547     Cd1550   2.017       .  S
Zn1548     O1559   2.009       .  S
Zn1548     O1553   1.873       .  S
O1549      C1560   1.277       .  A
O1549     Cd1554   2.096       .  S
Cd1550     O1553   1.909       .  S
Cd1551     O1555   2.050   1_545  S
Cd1551     O1564   2.010   1_545  S
O1552      C1562   1.267       .  A
O1553     Cd1554   1.947       .  S
Cd1554     O1556   2.242       .  S
O1555      C1562   1.271       .  A
C1557      O1561   1.279       .  A
C1558      C1654   1.446       .  S
C1562      C1604   1.444       .  S
C1563      O1564   1.268   1_545  A
O1565     Zn1571   2.011       .  S
O1565      C1581   1.275       .  A
C1566      O1582   1.274       .  A
C1566      O1579   1.269       .  A
C1566      C1632   1.442       .  S
O1567      C1580   1.272       .  A
O1567     Cd3230   2.062       .  S
O1568      C1586   1.265       .  A
O1568     Cd3233   2.013   1_455  S
O1569      C1583   1.274       .  A
O1569     Cd1573   2.090       .  S
O1570      C1581   1.307       .  A
O1570     Cd1573   2.223       .  S
Zn1571     O1582   2.016       .  S
Zn1571     O1584   2.028       .  S
Zn1571     O1576   1.875       .  S
O1572      C1583   1.265       .  A
O1572     Cd1577   2.007       .  S
Cd1573     O1575   2.235       .  S
Cd1573     O1576   1.950       .  S
Cd1574     O3223   2.062       .  S
Cd1574     O1578   2.014       .  S
Cd1574     O1587   2.058   1_655  S
Cd1574     O3232   1.972       .  S
O1575      C3241   1.300       .  A
O1576     Cd3230   1.972       .  S
O1576     Cd1577   1.914       .  S
Cd1577     O3224   2.013       .  S
Cd1577     O1579   1.997       .  S
O1578      C1585   1.270       .  A
C1580      O1584   1.279       .  A
C1580      C1606   1.459       .  S
C1583      C1603   1.452       .  S
C1585      O3231   1.300       .  A
C1586      O1587   1.272       .  A
O1588     Zn1594   2.022       .  S
O1588      C3260   1.275       .  A
C1589      O1605   1.275       .  A
C1589      O1602   1.308       .  A
O1590      C1603   1.273       .  A
O1591      C1609   1.296       .  A
O1591     Cd1600   2.211       .  S
O1592      C1606   1.266       .  A
O1592     Cd1596   2.017       .  S
O1593      C1604   1.271       .  A
O1593     Cd3252   2.000   1_455  S
Zn1594     O1605   2.028       .  S
Zn1594     O1599   1.893       .  S
O1595      C1606   1.276       .  A
O1595     Cd1600   2.100       .  S
Cd1596     O3249   2.000       .  S
Cd1596     O1598   2.014       .  S
Cd1596     O1599   1.908       .  S
Cd1597     O1601   2.036       .  S
Cd1597     O1610   2.012       .  S
Cd1597     O1599   1.965       .  S
O1598      C1608   1.266       .  A
O1599     Cd1600   1.938       .  S
Cd1600     O1602   2.196       .  S
O1601      C1608   1.270       .  A
C1603      O1607   1.276       .  A
C1604      O3244   1.275       .  A
C1608      C1650   1.440       .  S
C1609      O1610   1.267       .  A
O1611     Zn1617   2.020       .  S
O1611      C1627   1.274       .  A
C1612      O3284   1.273       .  A
C1612      O1625   1.270       .  A
O1613     Cd1620   2.060       .  S
O1614      C1632   1.268       .  A
O1615      C1629   1.275       .  A
O1615     Cd1619   2.088       .  S
O1616      C1627   1.310       .  A
O1616     Cd1619   2.238       .  S
Zn1617     O1628   2.011       .  S
Zn1617     O1630   2.024       .  S
Zn1617     O1622   1.868       .  S
O1618      C1629   1.266       .  A
O1618     Cd1623   2.017       .  S
Cd1619     O1621   2.245       .  S
Cd1619     O1622   1.943       .  S
Cd1620     O1624   2.019   1_545  S
Cd1620     O1633   2.044   1_545  S
O1622     Cd1623   1.907       .  S
Cd1623     O3281   2.002       .  S
O1624      C1631   1.269       .  A
O1625     Cd3279   2.002   1_455  S
C1626      O1630   1.279       .  A
C1626      C1652   1.456       .  S
O1628      C3268   1.273       .  A
C1629      C1649   1.453       .  S
C1632      O1633   1.270       .  A
O1634      C1650   1.272       .  A
C1635      O1651   1.274       .  A
C1635      O1648   1.309       .  A
O1636      C1649   1.272       .  A
O1636     Cd2885   2.056   1_556  S
O1637      C3311   1.301       .  A
O1637     Cd1646   2.241       .  S
O1638      C1652   1.266       .  A
O1638     Cd1642   2.018       .  S
O1639      C1650   1.271       .  A
Zn1640     O1651   2.002       .  S
Zn1640     O1645   1.867       .  S
O1641      C1652   1.275       .  A
O1641     Cd1646   2.096       .  S
Cd1642     O3300   2.016       .  S
Cd1642     O1645   1.917       .  S
Cd1643     O2878   2.056       .  S
Cd1643     O1647   2.052   1_655  S
Cd1643     O1656   2.002       .  S
Cd1643     O3301   1.966       .  S
O1644      C1654   1.267       .  A
O1644     Cd3298   2.016   1_455  S
O1645     Cd3299   1.966       .  S
O1645     Cd1646   1.950       .  S
Cd1646     O1648   2.243       .  S
O1647      C1654   1.272       .  A
C1649      O1653   1.277       .  A
C1655      O3293   1.301       .  A
C1655      O1656   1.268       .  A
O1657     Zn1663   2.008       .  S
O1657      C2501   1.272   1_545  A
C1658      O1674   1.272       .  A
C1658      O2085   1.275       .  A
C1658      C2138   1.443       .  S
O1659      C1672   1.271       .  A
O1659     Cd1666   2.052       .  S
O1660      C1678   1.267   1_554  A
O1660     Cd1669   2.054       .  S
O1661      C1675   1.277       .  A
O1661     Cd1665   2.087       .  S
O1662      C2087   1.309   1_554  A
O1662     Cd2493   2.239       .  S
Zn1663     O1674   1.992       .  S
Zn1663     O1676   2.022       .  S
Zn1663     O1668   1.874       .  S
O1664      C1675   1.269       .  A
O1664     Cd1669   2.026       .  S
Cd1665     O2490   2.239   1_545  S
Cd1665     O1667   2.227       .  S
Cd1665     O2082   1.941   1_554  S
Cd1666     O1670   2.009       .  S
Cd1666     O1679   2.042       .  S
Cd1666     O1668   1.961       .  S
O1667      C1677   1.297       .  A
O1668     Cd2079   1.941       .  S
O1668     Cd2083   1.930       .  S
Cd1669     O1671   2.036       .  S
Cd1669     O2082   1.930   1_554  S
O1670      C2091   1.269       .  A
O1671      C2072   1.275   1_554  A
C1672      O1676   1.278       .  A
C1672      C1698   1.456       .  S
C1673      O2485   1.272       .  A
C1673      O2076   1.309       .  A
C1673      C1931   1.503       .  S
C1675      C1695   1.456       .  S
C1677      O2084   1.269       .  A
C1677      C2049   1.504       .  S
C1678      O2093   1.271       .  A
C1678      C2204   1.442       .  S
O1679      C2092   1.271       .  A
O1680     Zn1686   2.008       .  S
O1680      C1696   1.275       .  A
C1681      O2525   1.275       .  A
C1681      O1694   1.309       .  A
C1681      C1815   1.506       .  S
O1682      C1695   1.272       .  A
O1682     Cd1689   2.053       .  S
O1683      C1701   1.301       .  A
O1683     Cd1692   2.235       .  S
O1684      C1698   1.266       .  A
O1684     Cd1688   2.015       .  S
O1685      C1696   1.271       .  A
O1685     Cd1688   2.013       .  S
Zn1686     O1697   2.018       .  S
Zn1686     O1699   2.026       .  S
Zn1686     O1691   1.864       .  S
O1687      C1698   1.276       .  A
O1687     Cd1692   2.094       .  S
Cd1688     O1690   2.018       .  S
Cd1688     O1691   1.918       .  S
Cd1689     O1693   2.042       .  S
Cd1689     O1702   2.002       .  S
Cd1689     O1691   1.962       .  S
O1690      C1700   1.267       .  A
O1691     Cd1692   1.947       .  S
Cd1692     O2522   2.240   1_545  S
O1693      C1700   1.271       .  A
O1694     Cd2520   2.240       .  S
C1695      O1699   1.279       .  A
C1696      C1769   1.445       .  S
O1697      C2509   1.275   1_545  A
C1700      C1742   1.443       .  S
C1701      O1702   1.267       .  A
C1701      C1949   1.501       .  S
O1703     Zn1709   2.043       .  S
O1703      C1719   1.279       .  A
C1704      O1720   1.280       .  A
C1704      O2131   1.266       .  A
C1704      C2202   1.447       .  S
O1705      C1718   1.273       .  A
O1705     Cd1712   2.059       .  S
O1706      C1724   1.265   1_554  A
O1706     Cd1715   2.014       .  S
O1707      C1721   1.277       .  A
O1707     Cd1711   2.096       .  S
O1708      C2133   1.310       .  A
O1708     Cd1711   2.243   1_556  S
Zn1709     O1720   2.034       .  S
Zn1709     O1722   2.022       .  S
Zn1709     O1714   1.867       .  S
O1710      C1721   1.265       .  A
O1710     Cd1715   2.002       .  S
Cd1711     O1713   2.233       .  S
Cd1711     O2128   1.940   1_554  S
Cd1712     O1716   2.014       .  S
Cd1712     O1725   2.054       .  S
Cd1712     O1714   1.963       .  S
O1713      C1723   1.300       .  A
O1714     Cd2125   1.940       .  S
O1714     Cd2129   1.921       .  S
Cd1715     O1717   1.991       .  S
Cd1715     O2128   1.921   1_554  S
O1716      C2137   1.270       .  A
O1717      C2118   1.268   1_554  A
C1718      O1722   1.278       .  A
C1718      C1744   1.458       .  S
C1719      O2122   1.310       .  A
C1719      C1839   1.515       .  S
C1721      C1741   1.453       .  S
C1723      O2130   1.270       .  A
C1723      C1957   1.504       .  S
C1724      O2139   1.272       .  A
C1724      C2072   1.443       .  S
O1725      C2138   1.272       .  A
O1726     Zn1732   2.006       .  S
O1726      C1742   1.273       .  A
C1727      O1743   1.274       .  A
C1727      O1740   1.308       .  A
C1727      C1884   1.506       .  S
O1728      C1741   1.271       .  A
O1728     Cd1735   2.051       .  S
O1729      C1747   1.299       .  A
O1729     Cd1738   2.226       .  S
O1730      C1744   1.267       .  A
O1730     Cd1734   2.020       .  S
O1731      C1742   1.271       .  A
O1731     Cd1734   2.011       .  S
Zn1732     O1743   2.016       .  S
Zn1732     O1745   2.016       .  S
Zn1732     O1737   1.870       .  S
O1733      C1744   1.277       .  A
O1733     Cd1738   2.099       .  S
Cd1734     O1736   2.025       .  S
Cd1734     O1737   1.918       .  S
Cd1735     O1739   2.060       .  S
Cd1735     O1748   1.998       .  S
Cd1735     O1737   1.971       .  S
O1736      C1746   1.268       .  A
O1737     Cd1738   1.949       .  S
Cd1738     O1740   2.238       .  S
O1739      C1746   1.271       .  A
C1741      O1745   1.278       .  A
C1746      C1765   1.450       .  S
C1747      O1748   1.268       .  A
C1747      C1995   1.497       .  S
O1749     Zn1755   2.031       .  S
O1749      C1765   1.275       .  A
C1750      O1763   1.312       .  A
C1750      C1907   1.512       .  S
O1751      C1764   1.269       .  A
O1751     Cd1758   2.056       .  S
O1752      C1770   1.304       .  A
O1752     Cd1761   2.255       .  S
O1753      C1767   1.270       .  A
O1753     Cd1757   2.018       .  S
O1754      C1765   1.270       .  A
O1754     Cd1757   2.004       .  S
Zn1755     O1766   2.011       .  S
Zn1755     O1768   2.050       .  S
Zn1755     O1760   1.884       .  S
O1756      C1767   1.277       .  A
O1756     Cd1761   2.127       .  S
Cd1757     O1759   2.038       .  S
Cd1757     O1760   1.921       .  S
Cd1758     O1762   2.031       .  S
Cd1758     O1771   1.985       .  S
Cd1758     O1760   1.978       .  S
O1759      C1769   1.269       .  A
O1760     Cd1761   1.981       .  S
O1762      C1769   1.269       .  A
C1764      O1768   1.282       .  A
C1764      C1773   1.469       .  S
C1767      C1792   1.478       .  S
C1770      O1771   1.264       .  A
C1770      C2041   1.502       .  S
O1772     Zn1778   1.957       .  S
O1772      C1788   1.269   1_554  A
C1773      O1789   1.263       .  A
C1773      O1786   1.281       .  A
O1774      C2201   1.308       .  A
O1774     Cd1781   2.262       .  S
O1775     Cd1784   2.086   1_556  S
O1776      C1790   1.269       .  A
O1776     Cd1780   2.009       .  S
O1777      C2202   1.265       .  A
O1777     Cd1780   2.054       .  S
Zn1778     O1789   1.928       .  S
Zn1778     O1791   1.885       .  S
Zn1778     O1783   1.870       .  S
O1779      C2204   1.283   1_554  A
O1779     Cd1784   2.088       .  S
Cd1780     O1782   1.978       .  S
Cd1780     O2197   1.916       .  S
Cd1781     O1785   2.167       .  S
Cd1781     O2197   1.954       .  S
O1782      C1792   1.266       .  A
O1783     Cd2194   1.916   1_554  S
O1783     Cd2195   1.954   1_554  S
O1783     Cd1784   1.968       .  S
Cd1784     O1786   2.131       .  S
O1785      C1792   1.283       .  A
C1787      O2188   1.308       .  A
C1787      O1791   1.256       .  A
C1787      C2003   1.502       .  S
C1788      O2191   1.266       .  A
C1788      C2118   1.447       .  S
C1790      O2193   1.283       .  A
C1790      C2092   1.442       .  S
C1793      O1794   1.307       .  A
C1793      C1862   1.507       .  S
O1795     Zn1801   2.001       .  S
O1795      C1811   1.272       .  A
C1796      O1812   1.273       .  A
C1796      O1809   1.271       .  A
C1796      C1885   1.447       .  S
O1797      C1810   1.272       .  A
O1797     Cd1804   2.059       .  S
O1798      C1816   1.267       .  A
O1798     Cd1807   2.011       .  S
O1799      C1813   1.277       .  A
O1799     Cd1803   2.102       .  S
O1800      C1811   1.309       .  A
O1800     Cd1803   2.231       .  S
Zn1801     O1812   2.014       .  S
Zn1801     O1814   2.015       .  S
Zn1801     O1806   1.875       .  S
O1802      C1813   1.266       .  A
O1802     Cd1807   2.019       .  S
Cd1803     O1805   2.235       .  S
Cd1803     O1806   1.945       .  S
Cd1804     O1808   2.014       .  S
Cd1804     O1817   2.045       .  S
Cd1804     O1806   1.970       .  S
O1805      C1815   1.299       .  A
O1806     Cd1807   1.905       .  S
Cd1807     O1809   2.013       .  S
O1808      C1815   1.268       .  A
C1810      O1814   1.278       .  A
C1810      C1836   1.454       .  S
C1811      C2023   1.497       .  S
C1813      C1833   1.459       .  S
C1816      O1817   1.271       .  A
C1816      C1888   1.442       .  S
O1818     Zn1824   2.019       .  S
O1818      C1834   1.274       .  A
C1819      O1835   1.273       .  A
C1819      O1832   1.311       .  A
C1819      C2045   1.510       .  S
O1820      C1833   1.274       .  A
O1820     Cd1827   2.068       .  S
O1821      C1839   1.302       .  A
O1821     Cd1830   2.249       .  S
O1822      C1836   1.265       .  A
O1822     Cd2240   2.007   1_554  S
O1823      C1834   1.271       .  A
O1823     Cd1826   2.011       .  S
Zn1824     O1835   2.015       .  S
Zn1824     O1837   2.022       .  S
Zn1824     O1829   1.884       .  S
O1825      C1836   1.276       .  A
O1825     Cd2244   2.098   1_554  S
Cd1826     O2236   2.007       .  S
Cd1826     O1828   2.013       .  S
Cd1826     O1829   1.915       .  S
Cd1827     O1831   2.053       .  S
Cd1827     O1840   2.027       .  S
Cd1827     O1829   1.974       .  S
O1828      C1838   1.266       .  A
O1829     Cd1830   1.952       .  S
Cd1830     O2239   2.098       .  S
Cd1830     O1832   2.252       .  S
O1831      C1838   1.272       .  A
C1833      O1837   1.278       .  A
C1834      C1930   1.449       .  S
C1838      C1857   1.444       .  S
C1839      O1840   1.270       .  A
O1841     Zn1847   2.005       .  S
O1841      C1857   1.272       .  A
C1842      O1858   1.274       .  A
C1842      O1855   1.309       .  A
C1842      C1953   1.503       .  S
O1843      C1856   1.271       .  A
O1843     Cd1850   2.050       .  S
O1844      C1862   1.301       .  A
O1844     Cd1853   2.234       .  S
O1845      C1859   1.267       .  A
O1845     Cd2263   2.021   1_554  S
O1846      C1857   1.272       .  A
O1846     Cd1849   2.014       .  S
Zn1847     O1858   2.010       .  S
Zn1847     O1860   2.016       .  S
Zn1847     O1852   1.873       .  S
O1848      C1859   1.277   1_556  A
O1848     Cd2267   2.100       .  S
Cd1849     O2259   2.021       .  S
Cd1849     O1851   2.022       .  S
Cd1849     O1852   1.916       .  S
Cd1850     O1854   2.043       .  S
Cd1850     O1863   2.000       .  S
Cd1850     O1852   1.966       .  S
O1851      C1861   1.268       .  A
O1852     Cd1853   1.952       .  S
Cd1853     O2262   2.100       .  S
Cd1853     O1855   2.237       .  S
O1854      C1861   1.271       .  A
C1856      O1860   1.277       .  A
C1856      C1882   1.452       .  S
C1859      C1879   1.458       .  S
C1861      C1926   1.443       .  S
C1862      O1863   1.267       .  A
O1864     Zn1870   2.016       .  S
O1864      C1880   1.274       .  A
C1865      O1881   1.273       .  A
C1865      O1878   1.271       .  A
C1865      C1908   1.447       .  S
O1866      C1879   1.273       .  A
O1866     Cd1873   2.062       .  S
O1867      C1885   1.267       .  A
O1867     Cd1876   2.020       .  S
O1868      C1882   1.274       .  A
O1868     Cd1872   2.086       .  S
O1869      C1880   1.309       .  A
O1869     Cd1872   2.235       .  S
Zn1870     O1881   2.014       .  S
Zn1870     O1883   2.024       .  S
Zn1870     O1875   1.877       .  S
O1871      C1882   1.266       .  A
O1871     Cd1876   2.017       .  S
Cd1872     O1874   2.237       .  S
Cd1872     O1875   1.950       .  S
Cd1873     O1877   2.016       .  S
Cd1873     O1886   2.055       .  S
Cd1873     O1875   1.970       .  S
O1874      C1884   1.300       .  A
O1875     Cd1876   1.916       .  S
Cd1876     O1878   2.012       .  S
O1877      C1884   1.269       .  A
C1879      O1883   1.279       .  A
C1880      C2069   1.503       .  S
C1885      O1886   1.272       .  A
O1887     Zn1893   2.011       .  S
O1887      C1903   1.274       .  A
C1888      O1904   1.273       .  A
C1888      O1901   1.270       .  A
O1889      C1902   1.271       .  A
O1889     Cd1896   2.054       .  S
O1890      C1908   1.266       .  A
O1890     Cd1899   2.015       .  S
O1891      C1905   1.275       .  A
O1891     Cd1895   2.095       .  S
O1892      C1903   1.311       .  A
O1892     Cd1895   2.251       .  S
Zn1893     O1904   2.009       .  S
Zn1893     O1906   2.020       .  S
Zn1893     O1898   1.878       .  S
O1894      C1905   1.266       .  A
O1894     Cd1899   2.015       .  S
Cd1895     O1897   2.253       .  S
Cd1895     O1898   1.950       .  S
Cd1896     O1900   2.006       .  S
Cd1896     O1909   2.054       .  S
Cd1896     O1898   1.972       .  S
O1897      C1907   1.302       .  A
O1898     Cd1899   1.912       .  S
Cd1899     O1901   2.000       .  S
O1900      C1907   1.268       .  A
C1902      O1906   1.278       .  A
C1902      C1928   1.455       .  S
C1903      C1977   1.507       .  S
C1905      C1925   1.456       .  S
C1908      O1909   1.272       .  A
O1910     Zn1916   2.013       .  S
O1910      C1926   1.274       .  A
C1911      O1927   1.275       .  A
C1911      O1924   1.309       .  A
C1911      C1999   1.506       .  S
O1912      C1925   1.273       .  A
O1912     Cd1919   2.058       .  S
O1913      C1931   1.301       .  A
O1913     Cd1922   2.235       .  S
O1914      C1928   1.265       .  A
O1914     Cd2332   2.012   1_554  S
O1915      C1926   1.270       .  A
O1915     Cd1918   2.003       .  S
Zn1916     O1927   2.014       .  S
Zn1916     O1929   2.023       .  S
Zn1916     O1921   1.869       .  S
O1917      C1928   1.276   1_556  A
O1917     Cd2336   2.094       .  S
Cd1918     O2328   2.012       .  S
Cd1918     O1920   2.019       .  S
Cd1918     O1921   1.914       .  S
Cd1919     O1923   2.056       .  S
Cd1919     O1932   2.006       .  S
Cd1919     O1921   1.968       .  S
O1920      C1930   1.267       .  A
O1921     Cd1922   1.955       .  S
Cd1922     O2331   2.094       .  S
Cd1922     O1924   2.241       .  S
O1923      C1930   1.271       .  A
C1925      O1929   1.279       .  A
C1931      O1932   1.268       .  A
O1933     Zn1939   2.008       .  S
O1933      C1949   1.273       .  A
C1934      O1950   1.273       .  A
C1934      O1947   1.272       .  A
C1934      C2000   1.445       .  S
O1935      C1948   1.272       .  A
O1935     Cd1942   2.055       .  S
O1936      C1954   1.267       .  A
O1936     Cd1945   2.017       .  S
O1937      C1951   1.276       .  A
O1937     Cd1941   2.095       .  S
O1938      C1949   1.310       .  A
O1938     Cd1941   2.238       .  S
Zn1939     O2778   2.010   1_545  S
Zn1939     O1952   2.027       .  S
Zn1939     O1944   1.878       .  S
O1940      C1951   1.266       .  A
O1940     Cd1945   2.015       .  S
Cd1941     O1943   2.237       .  S
Cd1941     O1944   1.951       .  S
Cd1942     O1946   2.003       .  S
Cd1942     O1955   2.044       .  S
Cd1942     O1944   1.969       .  S
O1943      C1953   1.300       .  A
O1944     Cd1945   1.911       .  S
Cd1945     O2775   2.013   1_545  S
O1946      C1953   1.266       .  A
O1947     Cd2773   2.013       .  S
C1948      O1952   1.279       .  A
C1948      C1974   1.457       .  S
O1950     Zn2767   2.010       .  S
C1951      C1971   1.455       .  S
C1954      O1955   1.271       .  A
C1954      C2026   1.443       .  S
O1956     Zn1962   2.009       .  S
O1956      C1972   1.273       .  A
C1957      O1973   1.273       .  A
C1957      O1970   1.310       .  A
O1958      C2799   1.272       .  A
O1958     Cd2379   2.052       .  S
O1959      C2805   1.300       .  A
O1959     Cd1968   2.238       .  S
O1960      C1974   1.266       .  A
O1960     Cd1964   2.019       .  S
O1961      C1972   1.272       .  A
O1961     Cd1964   2.017       .  S
Zn1962     O1973   2.009       .  S
Zn1962     O2389   2.023   1_554  S
Zn1962     O1967   1.873       .  S
O1963      C1974   1.277       .  A
O1963     Cd1968   2.096       .  S
Cd1964     O2794   2.018   1_545  S
Cd1964     O1967   1.909       .  S
Cd1965     O2372   2.052   1_554  S
Cd1965     O1969   2.050       .  S
Cd1965     O1978   2.010       .  S
Cd1965     O2795   1.966       .  S
O1966      C1976   1.267       .  A
O1966     Cd2792   2.018       .  S
O1967     Cd2793   1.966       .  S
O1967     Cd1968   1.947       .  S
Cd1968     O1970   2.242       .  S
O1969      C1976   1.271       .  A
C1971      O2786   1.272       .  A
C1971      O1975   1.279       .  A
C1972      C2068   1.446       .  S
O1975     Zn2376   2.023       .  S
C1976      C2018   1.444       .  S
C1977      O2787   1.300       .  A
C1977      O1978   1.268       .  A
O1979     Zn1985   2.011       .  S
O1979      C1995   1.275       .  A
C1980      O1996   1.274       .  A
C1980      O1993   1.269       .  A
C1980      C2046   1.442       .  S
O1981      C1994   1.272       .  A
O1982      C2000   1.265       .  A
O1983      C1997   1.274       .  A
O1983     Cd1987   2.090       .  S
O1984      C1995   1.307       .  A
O1984     Cd1987   2.223       .  S
Zn1985     O1996   2.016       .  S
Zn1985     O1998   2.028       .  S
Zn1985     O1990   1.875       .  S
O1986      C1997   1.265       .  A
O1986     Cd1991   2.007       .  S
Cd1987     O1989   2.235       .  S
Cd1987     O1990   1.950       .  S
Cd1988     O1992   2.014       .  S
Cd1988     O2001   2.058       .  S
O1990     Cd1991   1.914       .  S
Cd1991     O1993   1.997       .  S
O1992      C1999   1.270       .  A
C1994      O1998   1.279       .  A
C1994      C2020   1.459       .  S
C1997      C2017   1.452       .  S
C2000      O2001   1.272       .  A
O2002     Zn2008   2.022   1_455  S
C2003      O2019   1.275       .  A
C2003      O2016   1.308       .  A
O2004      C2017   1.273       .  A
O2004     Cd2425   2.060       .  S
O2005      C2023   1.296       .  A
O2005     Cd2014   2.211       .  S
O2006      C2020   1.266       .  A
O2006     Cd2010   2.017       .  S
O2007      C2018   1.271       .  A
Zn2008     O2019   2.028       .  S
Zn2008     O2435   2.000   1_554  S
Zn2008     O2013   1.893       .  S
O2009      C2020   1.276       .  A
O2009     Cd2014   2.100       .  S
Cd2010     O2012   2.014       .  S
Cd2010     O2013   1.908       .  S
Cd2011     O2418   2.060   1_554  S
Cd2011     O2015   2.036       .  S
Cd2011     O2024   2.012       .  S
Cd2011     O2013   1.965       .  S
O2012      C2022   1.266       .  A
O2013     Cd2014   1.938       .  S
Cd2014     O2016   2.196       .  S
O2015      C2022   1.270       .  A
C2017      O2021   1.276       .  A
O2021     Zn2422   2.000       .  S
C2022      C2064   1.440       .  S
C2023      O2024   1.267       .  A
O2025     Zn2031   2.020       .  S
O2025      C2041   1.274       .  A
C2026      O2039   1.270       .  A
O2027      C2868   1.274       .  A
O2027     Cd2034   2.060       .  S
O2028      C2046   1.268       .  A
O2028     Cd2865   2.016       .  S
O2029      C2043   1.275       .  A
O2029     Cd2033   2.088       .  S
O2030      C2041   1.310       .  A
O2030     Cd2033   2.238       .  S
Zn2031     O2042   2.011   1_655  S
Zn2031     O2044   2.024       .  S
Zn2031     O2036   1.868       .  S
O2032      C2043   1.266       .  A
O2032     Cd2037   2.017       .  S
Cd2033     O2035   2.245       .  S
Cd2033     O2036   1.943       .  S
Cd2034     O2038   2.019       .  S
Cd2034     O2047   2.044       .  S
Cd2034     O2864   1.965       .  S
O2035      C2873   1.302   1_545  A
O2036     Cd2862   1.965       .  S
O2036     Cd2037   1.907       .  S
Cd2037     O2856   2.016   1_545  S
O2038      C2045   1.269       .  A
C2040      O2855   1.274       .  A
C2040      O2044   1.279       .  A
C2040      C2066   1.456       .  S
C2043      C2063   1.453       .  S
C2045      O2863   1.302       .  A
C2046      O2047   1.270       .  A
O2048     Zn2882   1.995       .  S
O2048      C2064   1.272       .  A
C2049      O2065   1.274       .  A
C2049      O2062   1.309       .  A
O2050      C2063   1.272       .  A
O2051     Cd2060   2.241       .  S
O2052      C2066   1.266       .  A
O2052     Cd2056   2.018       .  S
O2053      C2064   1.271       .  A
O2053     Cd2884   2.006       .  S
Zn2054     O2876   1.995   1_545  S
Zn2054     O2065   2.002       .  S
Zn2054     O2481   2.013   1_554  S
Zn2054     O2059   1.867       .  S
O2055      C2066   1.275       .  A
O2055     Cd2060   2.096       .  S
Cd2056     O2881   2.006   1_545  S
Cd2056     O2059   1.917       .  S
Cd2057     O2061   2.052       .  S
Cd2057     O2070   2.002       .  S
O2058      C2068   1.267       .  A
O2059     Cd2060   1.950       .  S
Cd2060     O2062   2.243       .  S
O2061      C2068   1.272       .  A
C2063      O2067   1.277       .  A
O2067     Zn2468   2.013       .  S
C2069      O2070   1.268       .  A
O2071     Zn2077   2.008       .  S
O2071      C2915   1.272   1_545  A
C2072      O2088   1.272       .  A
O2073      C2086   1.271       .  A
O2073     Cd2080   2.052       .  S
O2074      C2092   1.267       .  A
O2074     Cd2083   2.054       .  S
O2075      C2089   1.277       .  A
O2075     Cd2079   2.087       .  S
O2076     Cd2907   2.239       .  S
Zn2077     O2088   1.992       .  S
Zn2077     O2090   2.022       .  S
Zn2077     O2082   1.874       .  S
O2078      C2089   1.269       .  A
O2078     Cd2083   2.026       .  S
Cd2079     O2904   2.239   1_545  S
Cd2079     O2081   2.227       .  S
Cd2080     O2084   2.009   1_556  S
Cd2080     O2093   2.042       .  S
Cd2080     O2082   1.961       .  S
O2081      C2091   1.297       .  A
Cd2083     O2085   2.036       .  S
C2086      O2090   1.278       .  A
C2086      C2112   1.456       .  S
C2087      O2899   1.272       .  A
C2087      C2345   1.503       .  S
C2089      C2109   1.456       .  S
C2091      C2463   1.504       .  S
O2094     Zn2100   2.008       .  S
O2094      C2110   1.275       .  A
C2095      O2939   1.275       .  A
C2095      O2108   1.309       .  A
C2095      C2229   1.506       .  S
O2096      C2109   1.272       .  A
O2096     Cd2103   2.053       .  S
O2097      C2115   1.301       .  A
O2097     Cd2106   2.235       .  S
O2098      C2112   1.266       .  A
O2098     Cd2102   2.015       .  S
O2099      C2110   1.271       .  A
O2099     Cd2102   2.013       .  S
Zn2100     O2111   2.018       .  S
Zn2100     O2113   2.026       .  S
Zn2100     O2105   1.864       .  S
O2101      C2112   1.276       .  A
O2101     Cd2106   2.094       .  S
Cd2102     O2104   2.018       .  S
Cd2102     O2105   1.918       .  S
Cd2103     O2107   2.042       .  S
Cd2103     O2116   2.002       .  S
Cd2103     O2105   1.962       .  S
O2104      C2114   1.267       .  A
O2105     Cd2106   1.947       .  S
Cd2106     O2936   2.240   1_545  S
O2107      C2114   1.271       .  A
O2108     Cd2934   2.240       .  S
C2109      O2113   1.279       .  A
C2110      C2183   1.445       .  S
O2111      C2923   1.275   1_545  A
C2114      C2156   1.443       .  S
C2115      O2116   1.267       .  A
C2115      C2363   1.501       .  S
O2117     Zn2123   2.043       .  S
O2117      C2133   1.279       .  A
C2118      O2134   1.278       .  A
O2119      C2132   1.273       .  A
O2119     Cd2126   2.059       .  S
O2120      C2138   1.265       .  A
O2120     Cd2129   2.014       .  S
O2121      C2135   1.277       .  A
O2121     Cd2125   2.096       .  S
O2122     Cd2125   2.243       .  S
Zn2123     O2134   2.034       .  S
Zn2123     O2136   2.022       .  S
Zn2123     O2128   1.867       .  S
O2124      C2135   1.265       .  A
O2124     Cd2129   2.002       .  S
Cd2125     O2127   2.233       .  S
Cd2126     O2130   2.014   1_556  S
Cd2126     O2139   2.054       .  S
Cd2126     O2128   1.963       .  S
O2127      C2137   1.300       .  A
Cd2129     O2131   1.991       .  S
C2132      O2136   1.278       .  A
C2132      C2158   1.458       .  S
C2133      C2253   1.515       .  S
C2135      C2155   1.453       .  S
C2137      C2371   1.504       .  S
O2140     Zn2146   2.006       .  S
O2140      C2156   1.273       .  A
C2141      O2157   1.274       .  A
C2141      O2154   1.308       .  A
C2141      C2298   1.506       .  S
O2142      C2155   1.271       .  A
O2142     Cd2149   2.051       .  S
O2143      C2161   1.299       .  A
O2143     Cd2152   2.226       .  S
O2144      C2158   1.267       .  A
O2144     Cd2148   2.020       .  S
O2145      C2156   1.271       .  A
O2145     Cd2148   2.011       .  S
Zn2146     O2157   2.016       .  S
Zn2146     O2159   2.016       .  S
Zn2146     O2151   1.870       .  S
O2147      C2158   1.277       .  A
O2147     Cd2152   2.099       .  S
Cd2148     O2150   2.025       .  S
Cd2148     O2151   1.918       .  S
Cd2149     O2153   2.060       .  S
Cd2149     O2162   1.998       .  S
Cd2149     O2151   1.971       .  S
O2150      C2160   1.268       .  A
O2151     Cd2152   1.949       .  S
Cd2152     O2154   2.238       .  S
O2153      C2160   1.272       .  A
C2155      O2159   1.278       .  A
C2160      C2179   1.450       .  S
C2161      O2162   1.268       .  A
C2161      C2409   1.497       .  S
O2163     Zn2169   2.031       .  S
O2163      C2179   1.275       .  A
C2164      O2177   1.312       .  A
C2164      C2321   1.512       .  S
O2165      C2178   1.269       .  A
O2165     Cd2172   2.056       .  S
O2166      C2184   1.304       .  A
O2166     Cd2175   2.255       .  S
O2167      C2181   1.270       .  A
O2167     Cd2171   2.018       .  S
O2168      C2179   1.270       .  A
O2168     Cd2171   2.004       .  S
Zn2169     O2180   2.011       .  S
Zn2169     O2182   2.050       .  S
Zn2169     O2174   1.884       .  S
O2170      C2181   1.277       .  A
O2170     Cd2175   2.127       .  S
Cd2171     O2173   2.038       .  S
Cd2171     O2174   1.921       .  S
Cd2172     O2176   2.031       .  S
Cd2172     O2185   1.985       .  S
Cd2172     O2174   1.978       .  S
O2173      C2183   1.269       .  A
O2174     Cd2175   1.981       .  S
O2176      C2183   1.269       .  A
C2178      O2182   1.282       .  A
C2178      C2187   1.469       .  S
C2181      C2206   1.478       .  S
C2184      O2185   1.264       .  A
C2184      C2455   1.502       .  S
O2186     Zn2192   1.957       .  S
O2186      C2202   1.270       .  A
C2187      O2203   1.263       .  A
C2187      O2200   1.281       .  A
O2188     Cd2195   2.262   1_554  S
O2189     Cd2198   2.086       .  S
O2190      C2204   1.269       .  A
O2190     Cd2194   2.009       .  S
O2191     Cd2194   2.054       .  S
Zn2192     O2203   1.928       .  S
Zn2192     O2205   1.885       .  S
Zn2192     O2197   1.870       .  S
O2193     Cd2198   2.088       .  S
Cd2194     O2196   1.978       .  S
Cd2195     O2199   2.167       .  S
O2196      C2206   1.266       .  A
O2197     Cd2198   1.968       .  S
Cd2198     O2200   2.131       .  S
O2199      C2206   1.283       .  A
C2201      O2205   1.256       .  A
C2201      C2417   1.502       .  S
C2207      O2208   1.307       .  A
C2207      C2276   1.507       .  S
O2209     Zn2215   2.001       .  S
O2209      C2225   1.272       .  A
C2210      O2226   1.273       .  A
C2210      O2223   1.271       .  A
C2210      C2299   1.447       .  S
O2211      C2224   1.272       .  A
O2211     Cd2218   2.059       .  S
O2212      C2230   1.267       .  A
O2212     Cd2221   2.011       .  S
O2213      C2227   1.277       .  A
O2213     Cd2217   2.102       .  S
O2214      C2225   1.309       .  A
O2214     Cd2217   2.231       .  S
Zn2215     O2226   2.014       .  S
Zn2215     O2228   2.015       .  S
Zn2215     O2220   1.875       .  S
O2216      C2227   1.266       .  A
O2216     Cd2221   2.019       .  S
Cd2217     O2219   2.235       .  S
Cd2217     O2220   1.945       .  S
Cd2218     O2222   2.014       .  S
Cd2218     O2231   2.045       .  S
Cd2218     O2220   1.970       .  S
O2219      C2229   1.299       .  A
O2220     Cd2221   1.905       .  S
Cd2221     O2223   2.013       .  S
O2222      C2229   1.268       .  A
C2224      O2228   1.278       .  A
C2224      C2250   1.454       .  S
C2225      C2437   1.497       .  S
C2227      C2247   1.459       .  S
C2230      O2231   1.271       .  A
C2230      C2302   1.442       .  S
O2232     Zn2238   2.019       .  S
O2232      C2248   1.274       .  A
C2233      O2249   1.273       .  A
C2233      O2246   1.311       .  A
C2233      C2459   1.510       .  S
O2234      C2247   1.274       .  A
O2234     Cd2241   2.068       .  S
O2235      C2253   1.302       .  A
O2235     Cd2244   2.249       .  S
O2236      C2250   1.265       .  A
O2237      C2248   1.271       .  A
O2237     Cd2240   2.011       .  S
Zn2238     O2249   2.015       .  S
Zn2238     O2251   2.022       .  S
Zn2238     O2243   1.884       .  S
O2239      C2250   1.276       .  A
Cd2240     O2242   2.013       .  S
Cd2240     O2243   1.915       .  S
Cd2241     O2245   2.053       .  S
Cd2241     O2254   2.027       .  S
Cd2241     O2243   1.974       .  S
O2242      C2252   1.266       .  A
O2243     Cd2244   1.952       .  S
Cd2244     O2246   2.252       .  S
O2245      C2252   1.272       .  A
C2247      O2251   1.278       .  A
C2248      C2344   1.449       .  S
C2252      C2271   1.444       .  S
C2253      O2254   1.270       .  A
O2255     Zn2261   2.005       .  S
O2255      C2271   1.272       .  A
C2256      O2272   1.274       .  A
C2256      O2269   1.309       .  A
C2256      C2367   1.503       .  S
O2257      C2270   1.271       .  A
O2257     Cd2264   2.050       .  S
O2258      C2276   1.301       .  A
O2258     Cd2267   2.234       .  S
O2259      C2273   1.267       .  A
O2260      C2271   1.272       .  A
O2260     Cd2263   2.014       .  S
Zn2261     O2272   2.010       .  S
Zn2261     O2274   2.016       .  S
Zn2261     O2266   1.873       .  S
O2262      C2273   1.277       .  A
Cd2263     O2265   2.022       .  S
Cd2263     O2266   1.916       .  S
Cd2264     O2268   2.043       .  S
Cd2264     O2277   2.000       .  S
Cd2264     O2266   1.966       .  S
O2265      C2275   1.268       .  A
O2266     Cd2267   1.952       .  S
Cd2267     O2269   2.237       .  S
O2268      C2275   1.271       .  A
C2270      O2274   1.277       .  A
C2270      C2296   1.452       .  S
C2273      C2293   1.458       .  S
C2275      C2340   1.443       .  S
C2276      O2277   1.267       .  A
O2278     Zn2284   2.016       .  S
O2278      C2294   1.274       .  A
C2279      O2295   1.273       .  A
C2279      O2292   1.271       .  A
C2279      C2322   1.447       .  S
O2280      C2293   1.273       .  A
O2280     Cd2287   2.062       .  S
O2281      C2299   1.267       .  A
O2281     Cd2290   2.020       .  S
O2282      C2296   1.274       .  A
O2282     Cd2286   2.086       .  S
O2283      C2294   1.309       .  A
O2283     Cd2286   2.235       .  S
Zn2284     O2295   2.014       .  S
Zn2284     O2297   2.024       .  S
Zn2284     O2289   1.877       .  S
O2285      C2296   1.266       .  A
O2285     Cd2290   2.017       .  S
Cd2286     O2288   2.237       .  S
Cd2286     O2289   1.950       .  S
Cd2287     O2291   2.016       .  S
Cd2287     O2300   2.055       .  S
Cd2287     O2289   1.970       .  S
O2288      C2298   1.300       .  A
O2289     Cd2290   1.916       .  S
Cd2290     O2292   2.012       .  S
O2291      C2298   1.269       .  A
C2293      O2297   1.279       .  A
C2294      C2483   1.503       .  S
C2299      O2300   1.272       .  A
O2301     Zn2307   2.011       .  S
O2301      C2317   1.274       .  A
C2302      O2318   1.273       .  A
C2302      O2315   1.270       .  A
O2303      C2316   1.271       .  A
O2303     Cd2310   2.054       .  S
O2304      C2322   1.266       .  A
O2304     Cd2313   2.015       .  S
O2305      C2319   1.275       .  A
O2305     Cd2309   2.095       .  S
O2306      C2317   1.311       .  A
O2306     Cd2309   2.251       .  S
Zn2307     O2318   2.009       .  S
Zn2307     O2320   2.020       .  S
Zn2307     O2312   1.878       .  S
O2308      C2319   1.266       .  A
O2308     Cd2313   2.015       .  S
Cd2309     O2311   2.253       .  S
Cd2309     O2312   1.950       .  S
Cd2310     O2314   2.006       .  S
Cd2310     O2323   2.054       .  S
Cd2310     O2312   1.972       .  S
O2311      C2321   1.302       .  A
O2312     Cd2313   1.912       .  S
Cd2313     O2315   2.000       .  S
O2314      C2321   1.268       .  A
C2316      O2320   1.278       .  A
C2316      C2342   1.455       .  S
C2317      C2391   1.507       .  S
C2319      C2339   1.456       .  S
C2322      O2323   1.272       .  A
O2324     Zn2330   2.013       .  S
O2324      C2340   1.274       .  A
C2325      O2341   1.275       .  A
C2325      O2338   1.309       .  A
C2325      C2413   1.506       .  S
O2326      C2339   1.273       .  A
O2326     Cd2333   2.058       .  S
O2327      C2345   1.301       .  A
O2327     Cd2336   2.235       .  S
O2328      C2342   1.265       .  A
O2329      C2340   1.270       .  A
O2329     Cd2332   2.003       .  S
Zn2330     O2341   2.014       .  S
Zn2330     O2343   2.023       .  S
Zn2330     O2335   1.869       .  S
O2331      C2342   1.276       .  A
Cd2332     O2334   2.019       .  S
Cd2332     O2335   1.914       .  S
Cd2333     O2337   2.056       .  S
Cd2333     O2346   2.006       .  S
Cd2333     O2335   1.968       .  S
O2334      C2344   1.267       .  A
O2335     Cd2336   1.955       .  S
Cd2336     O2338   2.241       .  S
O2337      C2344   1.271       .  A
C2339      O2343   1.279       .  A
C2345      O2346   1.268       .  A
O2347     Zn2353   2.008       .  S
O2347      C2363   1.273       .  A
C2348      O2364   1.273       .  A
C2348      O2361   1.272       .  A
C2348      C2414   1.445       .  S
O2349      C2362   1.272       .  A
O2349     Cd2356   2.055       .  S
O2350      C2368   1.267       .  A
O2350     Cd2359   2.017       .  S
O2351      C2365   1.276       .  A
O2351     Cd2355   2.095       .  S
O2352      C2363   1.310       .  A
O2352     Cd2355   2.238       .  S
Zn2353     O3192   2.010   1_545  S
Zn2353     O2366   2.027       .  S
Zn2353     O2358   1.878       .  S
O2354      C2365   1.266       .  A
O2354     Cd2359   2.015       .  S
Cd2355     O2357   2.237       .  S
Cd2355     O2358   1.951       .  S
Cd2356     O2360   2.003       .  S
Cd2356     O2369   2.044       .  S
Cd2356     O2358   1.969       .  S
O2357      C2367   1.300       .  A
O2358     Cd2359   1.911       .  S
Cd2359     O3189   2.013   1_545  S
O2360      C2367   1.266       .  A
O2361     Cd3187   2.013       .  S
C2362      O2366   1.279       .  A
C2362      C2388   1.457       .  S
O2364     Zn3181   2.010       .  S
C2365      C2385   1.455       .  S
C2368      O2369   1.271       .  A
C2368      C2440   1.443       .  S
O2370     Zn2376   2.009       .  S
O2370      C2386   1.273       .  A
C2371      O2387   1.273       .  A
C2371      O2384   1.310       .  A
O2372      C3213   1.272       .  A
O2373      C3219   1.300       .  A
O2373     Cd2382   2.238       .  S
O2374      C2388   1.266       .  A
O2374     Cd2378   2.019       .  S
O2375      C2386   1.272       .  A
O2375     Cd2378   2.017       .  S
Zn2376     O2387   2.009       .  S
Zn2376     O2381   1.873       .  S
O2377      C2388   1.277       .  A
O2377     Cd2382   2.096       .  S
Cd2378     O3208   2.018   1_545  S
Cd2378     O2381   1.909       .  S
Cd2379     O2383   2.050       .  S
Cd2379     O2392   2.010       .  S
Cd2379     O3209   1.966       .  S
O2380      C2390   1.267       .  A
O2380     Cd3206   2.018       .  S
O2381     Cd3207   1.966       .  S
O2381     Cd2382   1.947       .  S
Cd2382     O2384   2.242       .  S
O2383      C2390   1.271       .  A
C2385      O3200   1.272       .  A
C2385      O2389   1.279       .  A
C2386      C2482   1.446       .  S
C2390      C2432   1.444       .  S
C2391      O3201   1.300       .  A
C2391      O2392   1.268       .  A
O2393     Zn2399   2.011       .  S
O2393      C2409   1.275       .  A
C2394      O2410   1.274       .  A
C2394      O2407   1.269       .  A
C2394      C2460   1.442       .  S
O2395      C2408   1.272       .  A
O2396      C2414   1.265       .  A
O2397      C2411   1.274       .  A
O2397     Cd2401   2.090       .  S
O2398      C2409   1.307       .  A
O2398     Cd2401   2.223       .  S
Zn2399     O2410   2.016       .  S
Zn2399     O2412   2.028       .  S
Zn2399     O2404   1.875       .  S
O2400      C2411   1.265       .  A
O2400     Cd2405   2.007       .  S
Cd2401     O2403   2.235       .  S
Cd2401     O2404   1.950       .  S
Cd2402     O2406   2.014       .  S
Cd2402     O2415   2.058       .  S
O2404     Cd2405   1.914       .  S
Cd2405     O2407   1.997       .  S
O2406      C2413   1.270       .  A
C2408      O2412   1.279       .  A
C2408      C2434   1.459       .  S
C2411      C2431   1.452       .  S
C2414      O2415   1.272       .  A
O2416     Zn2422   2.022   1_455  S
C2417      O2433   1.275       .  A
C2417      O2430   1.308       .  A
O2418      C2431   1.273       .  A
O2419      C2437   1.296       .  A
O2419     Cd2428   2.211       .  S
O2420      C2434   1.266       .  A
O2420     Cd2424   2.017       .  S
O2421      C2432   1.271       .  A
Zn2422     O2433   2.028       .  S
Zn2422     O2427   1.893       .  S
O2423      C2434   1.276       .  A
O2423     Cd2428   2.100       .  S
Cd2424     O2426   2.014       .  S
Cd2424     O2427   1.908       .  S
Cd2425     O2429   2.036       .  S
Cd2425     O2438   2.012       .  S
Cd2425     O2427   1.965       .  S
O2426      C2436   1.266       .  A
O2427     Cd2428   1.938       .  S
Cd2428     O2430   2.196       .  S
O2429      C2436   1.270       .  A
C2431      O2435   1.276       .  A
C2436      C2478   1.440       .  S
C2437      O2438   1.267       .  A
O2439     Zn2445   2.020       .  S
O2439      C2455   1.274       .  A
C2440      O2453   1.270       .  A
O2441      C3282   1.274       .  A
O2441     Cd2448   2.060       .  S
O2442      C2460   1.268       .  A
O2442     Cd3279   2.016       .  S
O2443      C2457   1.275       .  A
O2443     Cd2447   2.088       .  S
O2444      C2455   1.310       .  A
O2444     Cd2447   2.238       .  S
Zn2445     O2456   2.011   1_655  S
Zn2445     O2458   2.024       .  S
Zn2445     O2450   1.868       .  S
O2446      C2457   1.266       .  A
O2446     Cd2451   2.017       .  S
Cd2447     O2449   2.245       .  S
Cd2447     O2450   1.943       .  S
Cd2448     O2452   2.019       .  S
Cd2448     O2461   2.044       .  S
Cd2448     O3278   1.965       .  S
O2449      C3287   1.302   1_545  A
O2450     Cd3276   1.965       .  S
O2450     Cd2451   1.907       .  S
Cd2451     O3270   2.016   1_545  S
O2452      C2459   1.269       .  A
C2454      O3269   1.274       .  A
C2454      O2458   1.279       .  A
C2454      C2480   1.456       .  S
C2457      C2477   1.453       .  S
C2459      O3277   1.302       .  A
C2460      O2461   1.270       .  A
O2462     Zn3296   1.995       .  S
O2462      C2478   1.272       .  A
C2463      O2479   1.274       .  A
C2463      O2476   1.309       .  A
O2464      C2477   1.272       .  A
O2465     Cd2474   2.241       .  S
O2466      C2480   1.266       .  A
O2466     Cd2470   2.018       .  S
O2467      C2478   1.271       .  A
O2467     Cd3298   2.006       .  S
Zn2468     O3290   1.995   1_545  S
Zn2468     O2479   2.002       .  S
Zn2468     O2473   1.867       .  S
O2469      C2480   1.275       .  A
O2469     Cd2474   2.096       .  S
Cd2470     O3295   2.006   1_545  S
Cd2470     O2473   1.917       .  S
Cd2471     O2475   2.052       .  S
Cd2471     O2484   2.002       .  S
O2472      C2482   1.267       .  A
O2473     Cd2474   1.950       .  S
Cd2474     O2476   2.243       .  S
O2475      C2482   1.272       .  A
C2477      O2481   1.277       .  A
C2483      O2484   1.268       .  A
O2485     Zn2491   2.008       .  S
C2486      O2502   1.272       .  A
C2486      O2913   1.275       .  A
C2486      C2966   1.443       .  S
O2487      C2500   1.271       .  A
O2487     Cd2494   2.052       .  S
O2488      C2506   1.267   1_554  A
O2488     Cd2497   2.054       .  S
O2489      C2503   1.277       .  A
O2489     Cd2493   2.087       .  S
O2490      C2915   1.309   1_554  A
Zn2491     O2502   1.992       .  S
Zn2491     O2504   2.022       .  S
Zn2491     O2496   1.874       .  S
O2492      C2503   1.269       .  A
O2492     Cd2497   2.026       .  S
Cd2493     O2495   2.227       .  S
Cd2493     O2910   1.941   1_554  S
Cd2494     O2498   2.009       .  S
Cd2494     O2507   2.042       .  S
Cd2494     O2496   1.961       .  S
O2495      C2505   1.297       .  A
O2496     Cd2907   1.941       .  S
O2496     Cd2911   1.930       .  S
Cd2497     O2499   2.036       .  S
Cd2497     O2910   1.930   1_554  S
O2498      C2919   1.269       .  A
O2499      C2900   1.275   1_554  A
C2500      O2504   1.278       .  A
C2500      C2526   1.456       .  S
C2501      O2904   1.309       .  A
C2501      C2759   1.503       .  S
C2503      C2523   1.456       .  S
C2505      O2912   1.269       .  A
C2505      C2877   1.504       .  S
C2506      O2921   1.271       .  A
C2506      C3032   1.442       .  S
O2507      C2920   1.271       .  A
O2508     Zn2514   2.008       .  S
O2508      C2524   1.275       .  A
C2509      O2522   1.309       .  A
C2509      C2643   1.506       .  S
O2510      C2523   1.272       .  A
O2510     Cd2517   2.053       .  S
O2511      C2529   1.301       .  A
O2511     Cd2520   2.235       .  S
O2512      C2526   1.266       .  A
O2512     Cd2516   2.015       .  S
O2513      C2524   1.271       .  A
O2513     Cd2516   2.013       .  S
Zn2514     O2525   2.018       .  S
Zn2514     O2527   2.026       .  S
Zn2514     O2519   1.864       .  S
O2515      C2526   1.276       .  A
O2515     Cd2520   2.094       .  S
Cd2516     O2518   2.018       .  S
Cd2516     O2519   1.918       .  S
Cd2517     O2521   2.042       .  S
Cd2517     O2530   2.002       .  S
Cd2517     O2519   1.962       .  S
O2518      C2528   1.267       .  A
O2519     Cd2520   1.947       .  S
O2521      C2528   1.271       .  A
C2523      O2527   1.279       .  A
C2524      C2597   1.445       .  S
C2528      C2570   1.443       .  S
C2529      O2530   1.267       .  A
C2529      C2777   1.501       .  S
O2531     Zn2537   2.043       .  S
O2531      C2547   1.279       .  A
C2532      O2548   1.280       .  A
C2532      O2959   1.266       .  A
C2532      C3030   1.447       .  S
O2533      C2546   1.273       .  A
O2533     Cd2540   2.059       .  S
O2534      C2552   1.265   1_554  A
O2534     Cd2543   2.014       .  S
O2535      C2549   1.277       .  A
O2535     Cd2539   2.096       .  S
O2536      C2961   1.310       .  A
O2536     Cd2539   2.243   1_556  S
Zn2537     O2548   2.034       .  S
Zn2537     O2550   2.022       .  S
Zn2537     O2542   1.867       .  S
O2538      C2549   1.265       .  A
O2538     Cd2543   2.002       .  S
Cd2539     O2541   2.233       .  S
Cd2539     O2956   1.940   1_554  S
Cd2540     O2544   2.014       .  S
Cd2540     O2553   2.054       .  S
Cd2540     O2542   1.963       .  S
O2541      C2551   1.300       .  A
O2542     Cd2953   1.940       .  S
O2542     Cd2957   1.921       .  S
Cd2543     O2545   1.991       .  S
Cd2543     O2956   1.921   1_554  S
O2544      C2965   1.270       .  A
O2545      C2946   1.268   1_554  A
C2546      O2550   1.278       .  A
C2546      C2572   1.458       .  S
C2547      O2950   1.310       .  A
C2547      C2667   1.515       .  S
C2549      C2569   1.453       .  S
C2551      O2958   1.270       .  A
C2551      C2785   1.504       .  S
C2552      O2967   1.272       .  A
C2552      C2900   1.443       .  S
O2553      C2966   1.272       .  A
O2554     Zn2560   2.006       .  S
O2554      C2570   1.273       .  A
C2555      O2571   1.274       .  A
C2555      O2568   1.308       .  A
C2555      C2712   1.506       .  S
O2556      C2569   1.271       .  A
O2556     Cd2563   2.051       .  S
O2557      C2575   1.299       .  A
O2557     Cd2566   2.226       .  S
O2558      C2572   1.267       .  A
O2558     Cd2562   2.020       .  S
O2559      C2570   1.271       .  A
O2559     Cd2562   2.011       .  S
Zn2560     O2571   2.016       .  S
Zn2560     O2573   2.016       .  S
Zn2560     O2565   1.870       .  S
O2561      C2572   1.277       .  A
O2561     Cd2566   2.099       .  S
Cd2562     O2564   2.025       .  S
Cd2562     O2565   1.918       .  S
Cd2563     O2567   2.060       .  S
Cd2563     O2576   1.998       .  S
Cd2563     O2565   1.971       .  S
O2564      C2574   1.268       .  A
O2565     Cd2566   1.949       .  S
Cd2566     O2568   2.238       .  S
O2567      C2574   1.271       .  A
C2569      O2573   1.278       .  A
C2574      C2593   1.450       .  S
C2575      O2576   1.268       .  A
C2575      C2823   1.497       .  S
O2577     Zn2583   2.031       .  S
O2577      C2593   1.275       .  A
C2578      O2591   1.312       .  A
C2578      C2735   1.512       .  S
O2579      C2592   1.269       .  A
O2579     Cd2586   2.056       .  S
O2580      C2598   1.304       .  A
O2580     Cd2589   2.255       .  S
O2581      C2595   1.270       .  A
O2581     Cd2585   2.018       .  S
O2582      C2593   1.270       .  A
O2582     Cd2585   2.004       .  S
Zn2583     O2594   2.011       .  S
Zn2583     O2596   2.050       .  S
Zn2583     O2588   1.884       .  S
O2584      C2595   1.277       .  A
O2584     Cd2589   2.127       .  S
Cd2585     O2587   2.038       .  S
Cd2585     O2588   1.921       .  S
Cd2586     O2590   2.031       .  S
Cd2586     O2599   1.985       .  S
Cd2586     O2588   1.978       .  S
O2587      C2597   1.269       .  A
O2588     Cd2589   1.981       .  S
O2590      C2597   1.269       .  A
C2592      O2596   1.282       .  A
C2592      C2601   1.469       .  S
C2595      C2620   1.478       .  S
C2598      O2599   1.264       .  A
C2598      C2869   1.502       .  S
O2600     Zn2606   1.957       .  S
O2600      C2616   1.269   1_554  A
C2601      O2617   1.263       .  A
C2601      O2614   1.281       .  A
O2602      C3029   1.308       .  A
O2602     Cd2609   2.262       .  S
O2603     Cd2612   2.086   1_556  S
O2604      C2618   1.269       .  A
O2604     Cd2608   2.009       .  S
O2605      C3030   1.265       .  A
O2605     Cd2608   2.054       .  S
Zn2606     O2617   1.928       .  S
Zn2606     O2619   1.885       .  S
Zn2606     O2611   1.870       .  S
O2607      C3032   1.283   1_554  A
O2607     Cd2612   2.088       .  S
Cd2608     O2610   1.978       .  S
Cd2608     O3025   1.916       .  S
Cd2609     O2613   2.167       .  S
Cd2609     O3025   1.954       .  S
O2610      C2620   1.266       .  A
O2611     Cd3022   1.916   1_554  S
O2611     Cd3023   1.954   1_554  S
O2611     Cd2612   1.968       .  S
Cd2612     O2614   2.131       .  S
O2613      C2620   1.283       .  A
C2615      O3016   1.308       .  A
C2615      O2619   1.256       .  A
C2615      C2831   1.502       .  S
C2616      O3019   1.266       .  A
C2616      C2946   1.447       .  S
C2618      O3021   1.283       .  A
C2618      C2920   1.442       .  S
C2621      O2622   1.307       .  A
C2621      C2690   1.507       .  S
O2623     Zn2629   2.001       .  S
O2623      C2639   1.272       .  A
C2624      O2640   1.273       .  A
C2624      O2637   1.271       .  A
C2624      C2713   1.447       .  S
O2625      C2638   1.272       .  A
O2625     Cd2632   2.059       .  S
O2626      C2644   1.267       .  A
O2626     Cd2635   2.011       .  S
O2627      C2641   1.277       .  A
O2627     Cd2631   2.102       .  S
O2628      C2639   1.309       .  A
O2628     Cd2631   2.231       .  S
Zn2629     O2640   2.014       .  S
Zn2629     O2642   2.015       .  S
Zn2629     O2634   1.875       .  S
O2630      C2641   1.266       .  A
O2630     Cd2635   2.019       .  S
Cd2631     O2633   2.235       .  S
Cd2631     O2634   1.945       .  S
Cd2632     O2636   2.014       .  S
Cd2632     O2645   2.045       .  S
Cd2632     O2634   1.970       .  S
O2633      C2643   1.299       .  A
O2634     Cd2635   1.905       .  S
Cd2635     O2637   2.013       .  S
O2636      C2643   1.268       .  A
C2638      O2642   1.278       .  A
C2638      C2664   1.454       .  S
C2639      C2851   1.497       .  S
C2641      C2661   1.459       .  S
C2644      O2645   1.271       .  A
C2644      C2716   1.442       .  S
O2646     Zn2652   2.019       .  S
O2646      C2662   1.274       .  A
C2647      O2663   1.273       .  A
C2647      O2660   1.311       .  A
C2647      C2873   1.510       .  S
O2648      C2661   1.274       .  A
O2648     Cd2655   2.068       .  S
O2649      C2667   1.302       .  A
O2649     Cd2658   2.249       .  S
O2650      C2664   1.265       .  A
O2650     Cd3068   2.007   1_554  S
O2651      C2662   1.271       .  A
O2651     Cd2654   2.011       .  S
Zn2652     O2663   2.015       .  S
Zn2652     O2665   2.022       .  S
Zn2652     O2657   1.884       .  S
O2653      C2664   1.276       .  A
O2653     Cd3072   2.098   1_554  S
Cd2654     O3064   2.007       .  S
Cd2654     O2656   2.013       .  S
Cd2654     O2657   1.915       .  S
Cd2655     O2659   2.053       .  S
Cd2655     O2668   2.027       .  S
Cd2655     O2657   1.974       .  S
O2656      C2666   1.266       .  A
O2657     Cd2658   1.952       .  S
Cd2658     O3067   2.098       .  S
Cd2658     O2660   2.252       .  S
O2659      C2666   1.272       .  A
C2661      O2665   1.278       .  A
C2662      C2758   1.449       .  S
C2666      C2685   1.444       .  S
C2667      O2668   1.270       .  A
O2669     Zn2675   2.005       .  S
O2669      C2685   1.272       .  A
C2670      O2686   1.274       .  A
C2670      O2683   1.309       .  A
C2670      C2781   1.503       .  S
O2671      C2684   1.271       .  A
O2671     Cd2678   2.050       .  S
O2672      C2690   1.301       .  A
O2672     Cd2681   2.234       .  S
O2673      C2687   1.267       .  A
O2673     Cd3091   2.021   1_554  S
O2674      C2685   1.272       .  A
O2674     Cd2677   2.014       .  S
Zn2675     O2686   2.010       .  S
Zn2675     O2688   2.016       .  S
Zn2675     O2680   1.873       .  S
O2676      C2687   1.277   1_556  A
O2676     Cd3095   2.100       .  S
Cd2677     O3087   2.021       .  S
Cd2677     O2679   2.022       .  S
Cd2677     O2680   1.916       .  S
Cd2678     O2682   2.043       .  S
Cd2678     O2691   2.000       .  S
Cd2678     O2680   1.966       .  S
O2679      C2689   1.268       .  A
O2680     Cd2681   1.952       .  S
Cd2681     O3090   2.100       .  S
Cd2681     O2683   2.237       .  S
O2682      C2689   1.271       .  A
C2684      O2688   1.277       .  A
C2684      C2710   1.452       .  S
C2687      C2707   1.458       .  S
C2689      C2754   1.443       .  S
C2690      O2691   1.267       .  A
O2692     Zn2698   2.016       .  S
O2692      C2708   1.274       .  A
C2693      O2709   1.273       .  A
C2693      O2706   1.271       .  A
C2693      C2736   1.447       .  S
O2694      C2707   1.273       .  A
O2694     Cd2701   2.062       .  S
O2695      C2713   1.267       .  A
O2695     Cd2704   2.020       .  S
O2696      C2710   1.274       .  A
O2696     Cd2700   2.086       .  S
O2697      C2708   1.309       .  A
O2697     Cd2700   2.235       .  S
Zn2698     O2709   2.014       .  S
Zn2698     O2711   2.024       .  S
Zn2698     O2703   1.877       .  S
O2699      C2710   1.266       .  A
O2699     Cd2704   2.017       .  S
Cd2700     O2702   2.237       .  S
Cd2700     O2703   1.950       .  S
Cd2701     O2705   2.016       .  S
Cd2701     O2714   2.055       .  S
Cd2701     O2703   1.970       .  S
O2702      C2712   1.300       .  A
O2703     Cd2704   1.916       .  S
Cd2704     O2706   2.012       .  S
O2705      C2712   1.269       .  A
C2707      O2711   1.279       .  A
C2708      C2897   1.503       .  S
C2713      O2714   1.272       .  A
O2715     Zn2721   2.011       .  S
O2715      C2731   1.274       .  A
C2716      O2732   1.273       .  A
C2716      O2729   1.270       .  A
O2717      C2730   1.271       .  A
O2717     Cd2724   2.054       .  S
O2718      C2736   1.266       .  A
O2718     Cd2727   2.015       .  S
O2719      C2733   1.275       .  A
O2719     Cd2723   2.095       .  S
O2720      C2731   1.311       .  A
O2720     Cd2723   2.251       .  S
Zn2721     O2732   2.009       .  S
Zn2721     O2734   2.020       .  S
Zn2721     O2726   1.878       .  S
O2722      C2733   1.266       .  A
O2722     Cd2727   2.015       .  S
Cd2723     O2725   2.253       .  S
Cd2723     O2726   1.950       .  S
Cd2724     O2728   2.006       .  S
Cd2724     O2737   2.054       .  S
Cd2724     O2726   1.972       .  S
O2725      C2735   1.302       .  A
O2726     Cd2727   1.912       .  S
Cd2727     O2729   2.000       .  S
O2728      C2735   1.268       .  A
C2730      O2734   1.278       .  A
C2730      C2756   1.455       .  S
C2731      C2805   1.507   1_565  S
C2733      C2753   1.456       .  S
C2736      O2737   1.272       .  A
O2738     Zn2744   2.013       .  S
O2738      C2754   1.274       .  A
C2739      O2755   1.275       .  A
C2739      O2752   1.309       .  A
C2739      C2827   1.506       .  S
O2740      C2753   1.273       .  A
O2740     Cd2747   2.058       .  S
O2741      C2759   1.301       .  A
O2741     Cd2750   2.235       .  S
O2742      C2756   1.265       .  A
O2742     Cd3160   2.012   1_554  S
O2743      C2754   1.270       .  A
O2743     Cd2746   2.003       .  S
Zn2744     O2755   2.014       .  S
Zn2744     O2757   2.022       .  S
Zn2744     O2749   1.869       .  S
O2745      C2756   1.276   1_556  A
O2745     Cd3164   2.094       .  S
Cd2746     O3156   2.012       .  S
Cd2746     O2748   2.019       .  S
Cd2746     O2749   1.914       .  S
Cd2747     O2751   2.056       .  S
Cd2747     O2760   2.006       .  S
Cd2747     O2749   1.968       .  S
O2748      C2758   1.267       .  A
O2749     Cd2750   1.955       .  S
Cd2750     O3159   2.094       .  S
Cd2750     O2752   2.241       .  S
O2751      C2758   1.271       .  A
C2753      O2757   1.279       .  A
C2759      O2760   1.268       .  A
O2761     Zn2767   2.008       .  S
O2761      C2777   1.273       .  A
C2762      O2778   1.273       .  A
C2762      O2775   1.272       .  A
C2762      C2828   1.445       .  S
O2763      C2776   1.272       .  A
O2763     Cd2770   2.055       .  S
O2764      C2782   1.267       .  A
O2764     Cd2773   2.017       .  S
O2765      C2779   1.276       .  A
O2765     Cd2769   2.095       .  S
O2766      C2777   1.310       .  A
O2766     Cd2769   2.238       .  S
Zn2767     O2780   2.027       .  S
Zn2767     O2772   1.878       .  S
O2768      C2779   1.266       .  A
O2768     Cd2773   2.015       .  S
Cd2769     O2771   2.237       .  S
Cd2769     O2772   1.951       .  S
Cd2770     O2774   2.003       .  S
Cd2770     O2783   2.044       .  S
Cd2770     O2772   1.969       .  S
O2771      C2781   1.300       .  A
O2772     Cd2773   1.911       .  S
O2774      C2781   1.266       .  A
C2776      O2780   1.279       .  A
C2776      C2802   1.457       .  S
C2779      C2799   1.455       .  S
C2782      O2783   1.271       .  A
C2782      C2854   1.443       .  S
O2784     Zn2790   2.009       .  S
O2784      C2800   1.273       .  A
C2785      O2801   1.273       .  A
C2785      O2798   1.310       .  A
O2786     Cd3207   2.052       .  S
O2787     Cd2796   2.238       .  S
O2788      C2802   1.266       .  A
O2788     Cd2792   2.019       .  S
O2789      C2800   1.272       .  A
O2789     Cd2792   2.017       .  S
Zn2790     O2801   2.009       .  S
Zn2790     O3217   2.023   1_554  S
Zn2790     O2795   1.873       .  S
O2791      C2802   1.277       .  A
O2791     Cd2796   2.096       .  S
Cd2792     O2795   1.909       .  S
Cd2793     O3200   2.052   1_554  S
Cd2793     O2797   2.050   1_545  S
Cd2793     O2806   2.010   1_545  S
O2794      C2804   1.267       .  A
O2795     Cd2796   1.947       .  S
Cd2796     O2798   2.242       .  S
O2797      C2804   1.271       .  A
C2799      O2803   1.279       .  A
C2800      C2896   1.446       .  S
O2803     Zn3204   2.023       .  S
C2804      C2846   1.444       .  S
C2805      O2806   1.268   1_545  A
O2807     Zn2813   2.011       .  S
O2807      C2823   1.275       .  A
C2808      O2824   1.274       .  A
C2808      O2821   1.269       .  A
C2808      C2874   1.442       .  S
O2809      C2822   1.272       .  A
O2810      C2828   1.265       .  A
O2811      C2825   1.274       .  A
O2811     Cd2815   2.090       .  S
O2812      C2823   1.307       .  A
O2812     Cd2815   2.223       .  S
Zn2813     O2824   2.016       .  S
Zn2813     O2826   2.028       .  S
Zn2813     O2818   1.875       .  S
O2814      C2825   1.265       .  A
O2814     Cd2819   2.007       .  S
Cd2815     O2817   2.235       .  S
Cd2815     O2818   1.950       .  S
Cd2816     O2820   2.014       .  S
Cd2816     O2829   2.058       .  S
O2818     Cd2819   1.914       .  S
Cd2819     O2821   1.997       .  S
O2820      C2827   1.270       .  A
C2822      O2826   1.279       .  A
C2822      C2848   1.459       .  S
C2825      C2845   1.452       .  S
C2828      O2829   1.272       .  A
O2830     Zn2836   2.022   1_455  S
C2831      O2847   1.275       .  A
C2831      O2844   1.308       .  A
O2832      C2845   1.273       .  A
O2832     Cd3253   2.060       .  S
O2833      C2851   1.296       .  A
O2833     Cd2842   2.211       .  S
O2834      C2848   1.266       .  A
O2834     Cd2838   2.017       .  S
O2835      C2846   1.271       .  A
Zn2836     O2847   2.028       .  S
Zn2836     O3263   2.000   1_554  S
Zn2836     O2841   1.893       .  S
O2837      C2848   1.276       .  A
O2837     Cd2842   2.100       .  S
Cd2838     O2840   2.014       .  S
Cd2838     O2841   1.908       .  S
Cd2839     O3246   2.060   1_554  S
Cd2839     O2843   2.036       .  S
Cd2839     O2852   2.012       .  S
Cd2839     O2841   1.965       .  S
O2840      C2850   1.266       .  A
O2841     Cd2842   1.938       .  S
Cd2842     O2844   2.196       .  S
O2843      C2850   1.270       .  A
C2845      O2849   1.276       .  A
O2849     Zn3250   2.000       .  S
C2850      C2892   1.440       .  S
C2851      O2852   1.267       .  A
O2853     Zn2859   2.020       .  S
O2853      C2869   1.274       .  A
C2854      O2867   1.270       .  A
O2855     Cd2862   2.060       .  S
O2856      C2874   1.268       .  A
O2857      C2871   1.275       .  A
O2857     Cd2861   2.088       .  S
O2858      C2869   1.310       .  A
O2858     Cd2861   2.238       .  S
Zn2859     O2870   2.011   1_655  S
Zn2859     O2872   2.024       .  S
Zn2859     O2864   1.868       .  S
O2860      C2871   1.266       .  A
O2860     Cd2865   2.017       .  S
Cd2861     O2863   2.245       .  S
Cd2861     O2864   1.943       .  S
Cd2862     O2866   2.019   1_545  S
Cd2862     O2875   2.044   1_545  S
O2864     Cd2865   1.907       .  S
O2866      C2873   1.269       .  A
C2868      O2872   1.279       .  A
C2868      C2894   1.456       .  S
C2871      C2891   1.453       .  S
C2874      O2875   1.270       .  A
O2876      C2892   1.272       .  A
C2877      O2893   1.274       .  A
C2877      O2890   1.309       .  A
O2878      C2891   1.272       .  A
O2879     Cd2888   2.241       .  S
O2880      C2894   1.266       .  A
O2880     Cd2884   2.018       .  S
O2881      C2892   1.271       .  A
Zn2882     O2893   2.003       .  S
Zn2882     O3309   2.013   1_554  S
Zn2882     O2887   1.867       .  S
O2883      C2894   1.275       .  A
O2883     Cd2888   2.096       .  S
Cd2884     O2887   1.917       .  S
Cd2885     O2889   2.052       .  S
Cd2885     O2898   2.002       .  S
O2886      C2896   1.267       .  A
O2887     Cd2888   1.950       .  S
Cd2888     O2890   2.243       .  S
O2889      C2896   1.272       .  A
C2891      O2895   1.277       .  A
O2895     Zn3296   2.013       .  S
C2897      O2898   1.268       .  A
O2899     Zn2905   2.008       .  S
C2900      O2916   1.272       .  A
O2901      C2914   1.271       .  A
O2901     Cd2908   2.052       .  S
O2902      C2920   1.267       .  A
O2902     Cd2911   2.054       .  S
O2903      C2917   1.277       .  A
O2903     Cd2907   2.087       .  S
Zn2905     O2916   1.992       .  S
Zn2905     O2918   2.022       .  S
Zn2905     O2910   1.874       .  S
O2906      C2917   1.269       .  A
O2906     Cd2911   2.026       .  S
Cd2907     O2909   2.227       .  S
Cd2908     O2912   2.009   1_556  S
Cd2908     O2921   2.042       .  S
Cd2908     O2910   1.961       .  S
O2909      C2919   1.297       .  A
Cd2911     O2913   2.036       .  S
C2914      O2918   1.278       .  A
C2914      C2940   1.456       .  S
C2915      C3173   1.503       .  S
C2917      C2937   1.456       .  S
C2919      C3291   1.504       .  S
O2922     Zn2928   2.008       .  S
O2922      C2938   1.275       .  A
C2923      O2936   1.309       .  A
C2923      C3057   1.506       .  S
O2924      C2937   1.272       .  A
O2924     Cd2931   2.053       .  S
O2925      C2943   1.301       .  A
O2925     Cd2934   2.235       .  S
O2926      C2940   1.266       .  A
O2926     Cd2930   2.015       .  S
O2927      C2938   1.271       .  A
O2927     Cd2930   2.013       .  S
Zn2928     O2939   2.018       .  S
Zn2928     O2941   2.026       .  S
Zn2928     O2933   1.864       .  S
O2929      C2940   1.276       .  A
O2929     Cd2934   2.094       .  S
Cd2930     O2932   2.018       .  S
Cd2930     O2933   1.918       .  S
Cd2931     O2935   2.042       .  S
Cd2931     O2944   2.002       .  S
Cd2931     O2933   1.962       .  S
O2932      C2942   1.267       .  A
O2933     Cd2934   1.947       .  S
O2935      C2942   1.271       .  A
C2937      O2941   1.279       .  A
C2938      C3011   1.445       .  S
C2942      C2984   1.443       .  S
C2943      O2944   1.267       .  A
C2943      C3191   1.501       .  S
O2945     Zn2951   2.043       .  S
O2945      C2961   1.279       .  A
C2946      O2962   1.278       .  A
O2947      C2960   1.273       .  A
O2947     Cd2954   2.059       .  S
O2948      C2966   1.265       .  A
O2948     Cd2957   2.014       .  S
O2949      C2963   1.277       .  A
O2949     Cd2953   2.096       .  S
O2950     Cd2953   2.243       .  S
Zn2951     O2962   2.034       .  S
Zn2951     O2964   2.022       .  S
Zn2951     O2956   1.867       .  S
O2952      C2963   1.265       .  A
O2952     Cd2957   2.002       .  S
Cd2953     O2955   2.233       .  S
Cd2954     O2958   2.014   1_556  S
Cd2954     O2967   2.054       .  S
Cd2954     O2956   1.963       .  S
O2955      C2965   1.300       .  A
Cd2957     O2959   1.991       .  S
C2960      O2964   1.278       .  A
C2960      C2986   1.458       .  S
C2961      C3081   1.515       .  S
C2963      C2983   1.453       .  S
C2965      C3199   1.504       .  S
O2968     Zn2974   2.006       .  S
O2968      C2984   1.273       .  A
C2969      O2985   1.274       .  A
C2969      O2982   1.308       .  A
C2969      C3126   1.506       .  S
O2970      C2983   1.271       .  A
O2970     Cd2977   2.051       .  S
O2971      C2989   1.299       .  A
O2971     Cd2980   2.226       .  S
O2972      C2986   1.267       .  A
O2972     Cd2976   2.020       .  S
O2973      C2984   1.271       .  A
O2973     Cd2976   2.011       .  S
Zn2974     O2985   2.016       .  S
Zn2974     O2987   2.016       .  S
Zn2974     O2979   1.870       .  S
O2975      C2986   1.277       .  A
O2975     Cd2980   2.099       .  S
Cd2976     O2978   2.025       .  S
Cd2976     O2979   1.918       .  S
Cd2977     O2981   2.060       .  S
Cd2977     O2990   1.998       .  S
Cd2977     O2979   1.971       .  S
O2978      C2988   1.268       .  A
O2979     Cd2980   1.949       .  S
Cd2980     O2982   2.238       .  S
O2981      C2988   1.272       .  A
C2983      O2987   1.278       .  A
C2988      C3007   1.450       .  S
C2989      O2990   1.268       .  A
C2989      C3237   1.497       .  S
O2991     Zn2997   2.031       .  S
O2991      C3007   1.275       .  A
C2992      O3005   1.312       .  A
C2992      C3149   1.512       .  S
O2993      C3006   1.269       .  A
O2993     Cd3000   2.056       .  S
O2994      C3012   1.304       .  A
O2994     Cd3003   2.255       .  S
O2995      C3009   1.270       .  A
O2995     Cd2999   2.018       .  S
O2996      C3007   1.270       .  A
O2996     Cd2999   2.004       .  S
Zn2997     O3008   2.011       .  S
Zn2997     O3010   2.050       .  S
Zn2997     O3002   1.884       .  S
O2998      C3009   1.277       .  A
O2998     Cd3003   2.127       .  S
Cd2999     O3001   2.038       .  S
Cd2999     O3002   1.921       .  S
Cd3000     O3004   2.031       .  S
Cd3000     O3013   1.985       .  S
Cd3000     O3002   1.978       .  S
O3001      C3011   1.269       .  A
O3002     Cd3003   1.981       .  S
O3004      C3011   1.269       .  A
C3006      O3010   1.282       .  A
C3006      C3015   1.469       .  S
C3009      C3034   1.478       .  S
C3012      O3013   1.264       .  A
C3012      C3283   1.502       .  S
O3014     Zn3020   1.957       .  S
O3014      C3030   1.270       .  A
C3015      O3031   1.263       .  A
C3015      O3028   1.281       .  A
O3016     Cd3023   2.262   1_554  S
O3017     Cd3026   2.086       .  S
O3018      C3032   1.269       .  A
O3018     Cd3022   2.009       .  S
O3019     Cd3022   2.054       .  S
Zn3020     O3031   1.928       .  S
Zn3020     O3033   1.885       .  S
Zn3020     O3025   1.870       .  S
O3021     Cd3026   2.088       .  S
Cd3022     O3024   1.978       .  S
Cd3023     O3027   2.167       .  S
O3024      C3034   1.266       .  A
O3025     Cd3026   1.968       .  S
Cd3026     O3028   2.131       .  S
O3027      C3034   1.283       .  A
C3029      O3033   1.256       .  A
C3029      C3245   1.502       .  S
C3035      O3036   1.307       .  A
C3035      C3104   1.507       .  S
O3037     Zn3043   2.001       .  S
O3037      C3053   1.272       .  A
C3038      O3054   1.273       .  A
C3038      O3051   1.271       .  A
C3038      C3127   1.447       .  S
O3039      C3052   1.272       .  A
O3039     Cd3046   2.059       .  S
O3040      C3058   1.267       .  A
O3040     Cd3049   2.011       .  S
O3041      C3055   1.277       .  A
O3041     Cd3045   2.102       .  S
O3042      C3053   1.309       .  A
O3042     Cd3045   2.231       .  S
Zn3043     O3054   2.014       .  S
Zn3043     O3056   2.015       .  S
Zn3043     O3048   1.875       .  S
O3044      C3055   1.266       .  A
O3044     Cd3049   2.019       .  S
Cd3045     O3047   2.235       .  S
Cd3045     O3048   1.945       .  S
Cd3046     O3050   2.014       .  S
Cd3046     O3059   2.045       .  S
Cd3046     O3048   1.970       .  S
O3047      C3057   1.299       .  A
O3048     Cd3049   1.905       .  S
Cd3049     O3051   2.013       .  S
O3050      C3057   1.268       .  A
C3052      O3056   1.278       .  A
C3052      C3078   1.454       .  S
C3053      C3265   1.497       .  S
C3055      C3075   1.459       .  S
C3058      O3059   1.271       .  A
C3058      C3130   1.442       .  S
O3060     Zn3066   2.019       .  S
O3060      C3076   1.274       .  A
C3061      O3077   1.273       .  A
C3061      O3074   1.311       .  A
C3061      C3287   1.510       .  S
O3062      C3075   1.274       .  A
O3062     Cd3069   2.068       .  S
O3063      C3081   1.302       .  A
O3063     Cd3072   2.249       .  S
O3064      C3078   1.265       .  A
O3065      C3076   1.271       .  A
O3065     Cd3068   2.011       .  S
Zn3066     O3077   2.015       .  S
Zn3066     O3079   2.022       .  S
Zn3066     O3071   1.884       .  S
O3067      C3078   1.276       .  A
Cd3068     O3070   2.013       .  S
Cd3068     O3071   1.915       .  S
Cd3069     O3073   2.053       .  S
Cd3069     O3082   2.027       .  S
Cd3069     O3071   1.974       .  S
O3070      C3080   1.266       .  A
O3071     Cd3072   1.952       .  S
Cd3072     O3074   2.252       .  S
O3073      C3080   1.272       .  A
C3075      O3079   1.279       .  A
C3076      C3172   1.449       .  S
C3080      C3099   1.444       .  S
C3081      O3082   1.270       .  A
O3083     Zn3089   2.005       .  S
O3083      C3099   1.272       .  A
C3084      O3100   1.274       .  A
C3084      O3097   1.309       .  A
C3084      C3195   1.503       .  S
O3085      C3098   1.271       .  A
O3085     Cd3092   2.050       .  S
O3086      C3104   1.301       .  A
O3086     Cd3095   2.234       .  S
O3087      C3101   1.267       .  A
O3088      C3099   1.272       .  A
O3088     Cd3091   2.014       .  S
Zn3089     O3100   2.010       .  S
Zn3089     O3102   2.016       .  S
Zn3089     O3094   1.873       .  S
O3090      C3101   1.277       .  A
Cd3091     O3093   2.022       .  S
Cd3091     O3094   1.916       .  S
Cd3092     O3096   2.043       .  S
Cd3092     O3105   2.000       .  S
Cd3092     O3094   1.966       .  S
O3093      C3103   1.268       .  A
O3094     Cd3095   1.952       .  S
Cd3095     O3097   2.237       .  S
O3096      C3103   1.271       .  A
C3098      O3102   1.277       .  A
C3098      C3124   1.452       .  S
C3101      C3121   1.458       .  S
C3103      C3168   1.443       .  S
C3104      O3105   1.267       .  A
O3106     Zn3112   2.016       .  S
O3106      C3122   1.274       .  A
C3107      O3123   1.273       .  A
C3107      O3120   1.271       .  A
C3107      C3150   1.447       .  S
O3108      C3121   1.273       .  A
O3108     Cd3115   2.062       .  S
O3109      C3127   1.267       .  A
O3109     Cd3118   2.020       .  S
O3110      C3124   1.274       .  A
O3110     Cd3114   2.086       .  S
O3111      C3122   1.309       .  A
O3111     Cd3114   2.235       .  S
Zn3112     O3123   2.014       .  S
Zn3112     O3125   2.024       .  S
Zn3112     O3117   1.877       .  S
O3113      C3124   1.266       .  A
O3113     Cd3118   2.017       .  S
Cd3114     O3116   2.237       .  S
Cd3114     O3117   1.950       .  S
Cd3115     O3119   2.016       .  S
Cd3115     O3128   2.055       .  S
Cd3115     O3117   1.970       .  S
O3116      C3126   1.300       .  A
O3117     Cd3118   1.916       .  S
Cd3118     O3120   2.012       .  S
O3119      C3126   1.269       .  A
C3121      O3125   1.279       .  A
C3122      C3311   1.503       .  S
C3127      O3128   1.272       .  A
O3129     Zn3135   2.011       .  S
O3129      C3145   1.274       .  A
C3130      O3146   1.273       .  A
C3130      O3143   1.270       .  A
O3131      C3144   1.271       .  A
O3131     Cd3138   2.054       .  S
O3132      C3150   1.266       .  A
O3132     Cd3141   2.015       .  S
O3133      C3147   1.275       .  A
O3133     Cd3137   2.095       .  S
O3134      C3145   1.311       .  A
O3134     Cd3137   2.251       .  S
Zn3135     O3146   2.009       .  S
Zn3135     O3148   2.020       .  S
Zn3135     O3140   1.878       .  S
O3136      C3147   1.266       .  A
O3136     Cd3141   2.015       .  S
Cd3137     O3139   2.253       .  S
Cd3137     O3140   1.950       .  S
Cd3138     O3142   2.006       .  S
Cd3138     O3151   2.054       .  S
Cd3138     O3140   1.972       .  S
O3139      C3149   1.302       .  A
O3140     Cd3141   1.912       .  S
Cd3141     O3143   2.000       .  S
O3142      C3149   1.268       .  A
C3144      O3148   1.278       .  A
C3144      C3170   1.455       .  S
C3145      C3219   1.507   1_565  S
C3147      C3167   1.456       .  S
C3150      O3151   1.272       .  A
O3152     Zn3158   2.013       .  S
O3152      C3168   1.274       .  A
C3153      O3169   1.275       .  A
C3153      O3166   1.309       .  A
C3153      C3241   1.506       .  S
O3154      C3167   1.273       .  A
O3154     Cd3161   2.058       .  S
O3155      C3173   1.301       .  A
O3155     Cd3164   2.235       .  S
O3156      C3170   1.265       .  A
O3157      C3168   1.270       .  A
O3157     Cd3160   2.003       .  S
Zn3158     O3169   2.014       .  S
Zn3158     O3171   2.023       .  S
Zn3158     O3163   1.869       .  S
O3159      C3170   1.276       .  A
Cd3160     O3162   2.019       .  S
Cd3160     O3163   1.914       .  S
Cd3161     O3165   2.056       .  S
Cd3161     O3174   2.006       .  S
Cd3161     O3163   1.968       .  S
O3162      C3172   1.267       .  A
O3163     Cd3164   1.955       .  S
Cd3164     O3166   2.241       .  S
O3165      C3172   1.271       .  A
C3167      O3171   1.279       .  A
C3173      O3174   1.268       .  A
O3175     Zn3181   2.008       .  S
O3175      C3191   1.273       .  A
C3176      O3192   1.273       .  A
C3176      O3189   1.272       .  A
C3176      C3242   1.445       .  S
O3177      C3190   1.272       .  A
O3177     Cd3184   2.055       .  S
O3178      C3196   1.267       .  A
O3178     Cd3187   2.017       .  S
O3179      C3193   1.276       .  A
O3179     Cd3183   2.095       .  S
O3180      C3191   1.310       .  A
O3180     Cd3183   2.238       .  S
Zn3181     O3194   2.027       .  S
Zn3181     O3186   1.878       .  S
O3182      C3193   1.266       .  A
O3182     Cd3187   2.015       .  S
Cd3183     O3185   2.237       .  S
Cd3183     O3186   1.951       .  S
Cd3184     O3188   2.003       .  S
Cd3184     O3197   2.044       .  S
Cd3184     O3186   1.969       .  S
O3185      C3195   1.300       .  A
O3186     Cd3187   1.911       .  S
O3188      C3195   1.266       .  A
C3190      O3194   1.279       .  A
C3190      C3216   1.457       .  S
C3193      C3213   1.455       .  S
C3196      O3197   1.271       .  A
C3196      C3268   1.443       .  S
O3198     Zn3204   2.009       .  S
O3198      C3214   1.273       .  A
C3199      O3215   1.273       .  A
C3199      O3212   1.310       .  A
O3201     Cd3210   2.238       .  S
O3202      C3216   1.266       .  A
O3202     Cd3206   2.019       .  S
O3203      C3214   1.272       .  A
O3203     Cd3206   2.017       .  S
Zn3204     O3215   2.009       .  S
Zn3204     O3209   1.873       .  S
O3205      C3216   1.277       .  A
O3205     Cd3210   2.096       .  S
Cd3206     O3209   1.909       .  S
Cd3207     O3211   2.050   1_545  S
Cd3207     O3220   2.010   1_545  S
O3208      C3218   1.267       .  A
O3209     Cd3210   1.947       .  S
Cd3210     O3212   2.242       .  S
O3211      C3218   1.271       .  A
C3213      O3217   1.279       .  A
C3214      C3310   1.446       .  S
C3218      C3260   1.444       .  S
C3219      O3220   1.268   1_545  A
O3221     Zn3227   2.011       .  S
O3221      C3237   1.275       .  A
C3222      O3238   1.274       .  A
C3222      O3235   1.269       .  A
C3222      C3288   1.442       .  S
O3223      C3236   1.272       .  A
O3224      C3242   1.265       .  A
O3225      C3239   1.274       .  A
O3225     Cd3229   2.090       .  S
O3226      C3237   1.307       .  A
O3226     Cd3229   2.223       .  S
Zn3227     O3238   2.016       .  S
Zn3227     O3240   2.028       .  S
Zn3227     O3232   1.875       .  S
O3228      C3239   1.265       .  A
O3228     Cd3233   2.007       .  S
Cd3229     O3231   2.235       .  S
Cd3229     O3232   1.950       .  S
Cd3230     O3234   2.014       .  S
Cd3230     O3243   2.058       .  S
O3232     Cd3233   1.914       .  S
Cd3233     O3235   1.997       .  S
O3234      C3241   1.270       .  A
C3236      O3240   1.279       .  A
C3236      C3262   1.459       .  S
C3239      C3259   1.452       .  S
C3242      O3243   1.272       .  A
O3244     Zn3250   2.022   1_455  S
C3245      O3261   1.275       .  A
C3245      O3258   1.308       .  A
O3246      C3259   1.273       .  A
O3247      C3265   1.296       .  A
O3247     Cd3256   2.211       .  S
O3248      C3262   1.266       .  A
O3248     Cd3252   2.017       .  S
O3249      C3260   1.271       .  A
Zn3250     O3261   2.028       .  S
Zn3250     O3255   1.893       .  S
O3251      C3262   1.276       .  A
O3251     Cd3256   2.100       .  S
Cd3252     O3254   2.014       .  S
Cd3252     O3255   1.908       .  S
Cd3253     O3257   2.036       .  S
Cd3253     O3266   2.012       .  S
Cd3253     O3255   1.965       .  S
O3254      C3264   1.266       .  A
O3255     Cd3256   1.938       .  S
Cd3256     O3258   2.196       .  S
O3257      C3264   1.270       .  A
C3259      O3263   1.276       .  A
C3264      C3306   1.440       .  S
C3265      O3266   1.267       .  A
O3267     Zn3273   2.020       .  S
O3267      C3283   1.274       .  A
C3268      O3281   1.270       .  A
O3269     Cd3276   2.060       .  S
O3270      C3288   1.268       .  A
O3271      C3285   1.275       .  A
O3271     Cd3275   2.088       .  S
O3272      C3283   1.310       .  A
O3272     Cd3275   2.238       .  S
Zn3273     O3284   2.011   1_655  S
Zn3273     O3286   2.024       .  S
Zn3273     O3278   1.868       .  S
O3274      C3285   1.266       .  A
O3274     Cd3279   2.017       .  S
Cd3275     O3277   2.245       .  S
Cd3275     O3278   1.943       .  S
Cd3276     O3280   2.019   1_545  S
Cd3276     O3289   2.044   1_545  S
O3278     Cd3279   1.907       .  S
O3280      C3287   1.269       .  A
C3282      O3286   1.279       .  A
C3282      C3308   1.456       .  S
C3285      C3305   1.453       .  S
C3288      O3289   1.270       .  A
O3290      C3306   1.272       .  A
C3291      O3307   1.274       .  A
C3291      O3304   1.309       .  A
O3292      C3305   1.272       .  A
O3293     Cd3302   2.241       .  S
O3294      C3308   1.266       .  A
O3294     Cd3298   2.018       .  S
O3295      C3306   1.271       .  A
Zn3296     O3307   2.002       .  S
Zn3296     O3301   1.867       .  S
O3297      C3308   1.275       .  A
O3297     Cd3302   2.096       .  S
Cd3298     O3301   1.917       .  S
Cd3299     O3303   2.052       .  S
Cd3299     O3312   2.002       .  S
O3300      C3310   1.267       .  A
O3301     Cd3302   1.950       .  S
Cd3302     O3304   2.243       .  S
O3303      C3310   1.272       .  A
C3305      O3309   1.277       .  A
C3311      O3312   1.268       .  A
