geometry optimzed in LAMMPS
_audit_creation_date              2020-12-01 
_audit_creation_method            'lammps2cif' 
_symmetry_space_group_name_H-M    'P1' 
_symmetry_Int_Tables_number       1 
_symmetry_cell_setting            triclinic 
loop_ 
_symmetry_equiv_pos_as_xyz 
  x,y,z 
_cell_length_a                    33.77928727 
_cell_length_b                    34.07849694987427 
_cell_length_c                    44.32463539500453 
_cell_angle_alpha                 89.99297942630429 
_cell_angle_beta                  90.22151986615205 
_cell_angle_gamma                 119.2163518080915 
loop_ 
_atom_site_label 
_atom_site_type_symbol 
_atom_site_fract_x 
_atom_site_fract_y 
_atom_site_fract_z 
_atom_site_charge 
O1          O  0.27528387  0.32025012  0.40461305    -0.82900
C2          C  0.33929277  0.35878297  0.02333340     0.96400
O3          O  0.36123471  0.35436516  0.00168487    -0.72100
O4          O  0.31978837  0.27947830  0.47086255    -0.75600
Al5        Al  0.34712434  0.34095872  0.45953390     1.49000
C6          C  0.28666665  0.24710585  0.45797154     0.91700
O7          O  0.21363698  0.28309400  0.47901941    -0.81900
O8          O  0.27905730  0.40986246  0.44701379    -0.75400
Al9        Al  0.24652487  0.30375226  0.44222630     1.90100
O10         O  0.22977852  0.35007135  0.49447361    -0.74500
O11         O  0.35519098  0.43257750  0.47787111    -0.74300
O12         O  0.30745352  0.36747957  0.01892446    -0.80000
O13         O  0.38339696  0.40192093  0.44793521    -0.78200
O14         O  0.29605486  0.34381157  0.46148463    -1.14300
O15         O  0.34144138  0.32661224  0.41690668    -0.73500
C16         C  0.31257658  0.32297556  0.39713813     0.97200
C17         C  0.20620164  0.30759944  0.49683802     0.93600
Al18       Al  0.29306013  0.38668895  0.48271211     1.55600
O19         O  0.25814133  0.25434691  0.44457355    -0.78200
C20         C  0.38729778  0.43583392  0.46175416     0.97700
C21         C  0.24574191  0.38640125  0.42987156     0.92600
O22         O  0.22311492  0.34423568  0.43349564    -0.83500
O23         O  0.06609512  0.31630879  0.34989278    -0.82900
C24         C  0.03161461  0.35603194  0.23512086     0.96400
O25         O  0.00563673  0.34975127  0.25760390    -0.72100
O26         O  0.97575732  0.27999406  0.29435814    -0.75600
Al27       Al  0.01234180  0.34259987  0.30055162     1.49000
C28         C  0.98082844  0.24715115  0.30157068     0.91700
O29         O  0.09411736  0.29013137  0.27213921    -0.81900
O30         O  0.14663858  0.41384397  0.30890148    -0.75400
Al31       Al  0.07904435  0.30535785  0.31064520     1.90100
O32         O  0.14131595  0.35935172  0.26053641    -0.74500
O33         O  0.09110279  0.43508278  0.27856536    -0.74300
O34         O  0.07370612  0.36960678  0.23820124    -0.80000
O35         O  0.03480061  0.40439867  0.30943757    -0.78200
O36         O  0.06606057  0.34575010  0.29489172    -1.14300
O37         O  0.01309717  0.33473358  0.34364975    -0.73500
C38         C  0.03832464  0.32682922  0.36100138     0.97200
C39         C  0.12785038  0.31797636  0.25698637     0.93600
Al40       Al  0.10932453  0.39059867  0.27348433     1.55600
O41         O  0.02006688  0.25344417  0.30702730    -0.78200
C42         C  0.06298025  0.43820854  0.29527453     0.97700
C43         C  0.15855189  0.39029098  0.32467003     0.92600
O44         O  0.14122664  0.34838474  0.31998779    -0.83500
O45         O  0.32209706  0.04007850  0.32328864    -0.82900
C46         C  0.37244759  0.02692278  0.44044334     0.96400
O47         O  0.37238958  0.00230308  0.41890002    -0.72100
O48         O  0.29706232  0.96207251  0.38719760    -0.75600
Al49       Al  0.35865369  0.00103583  0.37655684     1.49000
C50         C  0.26129442  0.96122287  0.37821391     0.91700
O51         O  0.29392203  0.07497791  0.39742254    -0.81900
O52         O  0.41903637  0.13369687  0.36219657    -0.75400
Al53       Al  0.31127076  0.05714135  0.36088155     1.90100
O54         O  0.36228825  0.12692974  0.40855341    -0.74500
O55         O  0.44638786  0.08665382  0.39576924    -0.74300
O56         O  0.37896429  0.06647016  0.43570767    -0.80000
O57         O  0.42135592  0.03046710  0.36459042    -0.78200
O58         O  0.35561288  0.05179871  0.37857745    -1.14300
O59         O  0.34335669  0.99040314  0.33462553    -0.73500
C60         C  0.33000273  0.00905766  0.31561381     0.97200
C61         C  0.32019554  0.11085674  0.41122518     0.93600
Al62       Al  0.39797847  0.09919300  0.39880058     1.55600
O63         O  0.26364747  0.99685363  0.36799900    -0.78200
C64         C  0.45378755  0.06174444  0.37875698     0.97700
C65         C  0.39326515  0.14015126  0.34437763     0.92600
O66         O  0.35043977  0.11838231  0.34755378    -0.83500
O67         O  0.32992679  0.27170799  0.26289571    -0.82900
C68         C  0.37808009  0.32862051  0.14463135     0.96400
O69         O  0.37499103  0.35301057  0.16514062    -0.72100
O70         O  0.29886843  0.31911236  0.19542594    -0.75600
Al71       Al  0.36057992  0.34258977  0.20741952     1.49000
C72         C  0.26424273  0.28599482  0.20614500     0.91700
O73         O  0.29875070  0.20653286  0.18915265    -0.81900
O74         O  0.42424841  0.27159060  0.22563511    -0.75400
Al75       Al  0.31684088  0.24218375  0.22547063     1.90100
O76         O  0.36732645  0.22080690  0.17826438    -0.74500
O77         O  0.45175162  0.34598581  0.19161436    -0.74300
O78         O  0.38595193  0.29676187  0.15060132    -0.80000
O79         O  0.42206660  0.37665012  0.21991276    -0.78200
O80         O  0.36017416  0.29007643  0.20704436    -1.14300
O81         O  0.34569492  0.34010973  0.24959131    -0.73500
C82         C  0.33676706  0.31048271  0.26961347     0.97200
C83         C  0.32483116  0.19591666  0.17530153     0.93600
Al84       Al  0.40378900  0.28439143  0.18821238     1.55600
O85         O  0.26861251  0.25528842  0.21871754    -0.78200
C86         C  0.45599987  0.37908115  0.20676354     0.97700
C87         C  0.39818054  0.23904877  0.24237475     0.92600
O88         O  0.35565780  0.21895800  0.23829077    -0.83500
O89         O  0.69933097  0.69372738  0.00783180    -0.82900
C90         C  0.64264776  0.65586407  0.39183825     0.96400
O91         O  0.66728921  0.64824217  0.40978682    -0.72100
O92         O  0.72192291  0.66263098  0.45655286    -0.75600
Al93       Al  0.65755042  0.63826472  0.45147411     1.49000
C94         C  0.75501905  0.70201347  0.45537069     0.91700
O95         O  0.70496058  0.78072610  0.45206098    -0.81900
O96         O  0.60200719  0.72658292  0.47098230    -0.75400
Al97       Al  0.69849721  0.73334986  0.47758074     1.90100
O98         O  0.65081757  0.75134415  0.41868736    -0.74500
O99         O  0.56473664  0.64141148  0.45605187    -0.74300
O100        O  0.61350877  0.66629686  0.40129734    -0.80000
O101        O  0.59387575  0.59906142  0.44514553    -0.78200
O102        O  0.65582425  0.68956356  0.45574990    -1.14300
O103        O  0.64803165  0.62532775  0.99371147    -0.73500
C104        C  0.67361602  0.65244914  0.01374548     0.97200
C105        C  0.68582128  0.78508418  0.42891377     0.93600
Al106      Al  0.61136596  0.69551991  0.43821804     1.55600
O107        O  0.74753134  0.73463835  0.45554647    -0.78200
C108        C  0.56007287  0.60267754  0.45302646     0.97700
C109        C  0.62148885  0.74065767  0.49610545     0.92600
O110        O  0.65702016  0.73933164  0.00264821    -0.83500
O111        O  0.99600128  0.27517054  0.49755353    -0.82900
C112        C  0.97685969  0.32207910  0.11083292     0.96400
O113        O  0.00970478  0.32825948  0.09401029    -0.72100
O114        O  0.05126715  0.31148464  0.04869235    -0.75600
Al115      Al  0.01151642  0.33614998  0.05195900     1.49000
C116        C  0.04618465  0.27265273  0.05145774     0.91700
O117        O  0.91967207  0.19537972  0.05907399    -0.81900
O118        O  0.87182404  0.25626713  0.02665537    -0.75400
Al119      Al  0.95762387  0.23832607  0.03002201     1.90100
O120        O  0.88659109  0.22751563  0.08222181    -0.74500
O121        O  0.91948150  0.33905426  0.04393510    -0.74300
O122        O  0.93762631  0.31115888  0.10019477    -0.80000
O123        O  0.98979037  0.37824653  0.05659563    -0.78200
O124        O  0.95852383  0.28546132  0.04800623    -1.14300
O125        O  0.01525237  0.34564968  0.50945764    -0.73500
C126        C  0.01202607  0.31643628  0.49032812     0.97200
C127        C  0.89313944  0.19438634  0.07926710     0.93600
Al128      Al  0.90820047  0.28361459  0.06209777     1.55600
O129        O  0.00680763  0.23998246  0.05243739    -0.78200
C130        C  0.95350682  0.37678083  0.04851576     0.97700
C131        C  0.87666514  0.23552795  0.00461900     0.92600
O132        O  0.90866171  0.22676602  0.00453290    -0.83500
O133        O  0.73068179  0.03370181  0.43459350    -0.82900
C134        C  0.67202446  0.01345725  0.31762527     0.96400
O135        O  0.65423326  0.98756900  0.34013728    -0.72100
O136        O  0.67960431  0.95688068  0.38752494    -0.75600
Al137      Al  0.65840609  0.99881596  0.38259788     1.49000
C138        C  0.71749861  0.95868783  0.38811581     0.91700
O139        O  0.80103155  0.07467042  0.36247178    -0.81900
O140        O  0.73678052  0.13637441  0.38811749    -0.75400
Al141      Al  0.76132427  0.05372476  0.39669349     1.90100
O142        O  0.77831940  0.11773901  0.34208107    -0.74500
O143        O  0.65912958  0.08884812  0.36068496    -0.74300
O144        O  0.69721485  0.05589373  0.32040427    -0.80000
O145        O  0.61966625  0.02348328  0.38058489    -0.78200
O146        O  0.71214622  0.04900752  0.37799980    -1.14300
O147        O  0.65847163  0.00728639  0.42513248    -0.73500
C148        C  0.69069314  0.02006291  0.44390077     0.97200
C149        C  0.80837347  0.10649947  0.34496726     0.93600
Al150      Al  0.71707919  0.09473783  0.35494288     1.55600
O151        O  0.75295479  0.99594072  0.38665751    -0.78200
C152        C  0.62272717  0.05930685  0.37142637     0.97700
C153        C  0.76566566  0.14065532  0.40795414     0.92600
O154        O  0.77950968  0.11244216  0.41050178    -0.83500
O155        O  0.69953012  0.98320306  0.07707776    -0.82900
C156        C  0.64459077  0.95931243  0.19324308     0.96400
O157        O  0.66771362  0.99245202  0.17601152    -0.72100
O158        O  0.72013041  0.03616217  0.12854958    -0.75600
Al159      Al  0.65684430  0.99443437  0.13439263     1.49000
C160        C  0.75488661  0.03166869  0.12933007     0.91700
O161        O  0.71383910  0.90663427  0.13340807    -0.81900
O162        O  0.60501163  0.85618642  0.10877743    -0.75400
Al163      Al  0.70331326  0.94473900  0.10758962     1.90100
O164        O  0.65335411  0.87273164  0.16131450    -0.74500
O165        O  0.56550933  0.90053802  0.12876499    -0.74300
O166        O  0.61715985  0.92035686  0.18285264    -0.80000
O167        O  0.59347609  0.97016187  0.14181824    -0.78200
O168        O  0.65792294  0.94300323  0.12863334    -1.14300
O169        O  0.64588072  0.99817841  0.09238936    -0.73500
C170        C  0.67132822  0.99705555  0.07179864     0.97200
C171        C  0.69174365  0.87866949  0.15362432     0.93600
Al172      Al  0.61395091  0.89200882  0.14417150     1.55600
O173        O  0.74982710  0.99281207  0.13001522    -0.78200
C174        C  0.55999715  0.93382757  0.13368810     0.97700
C175        C  0.62847339  0.86196229  0.08539134     0.92600
O176        O  0.66613707  0.89677927  0.08228420    -0.83500
O177        O  0.02899007  0.71590183  0.24238214    -0.82900
C178        C  0.03249885  0.66280170  0.35636256     0.96400
O179        O  0.00222248  0.65838699  0.33762847    -0.72100
O180        O  0.96816898  0.67926002  0.29041647    -0.75600
Al181      Al  0.00527396  0.65251637  0.29570044     1.49000
C182        C  0.97386800  0.71816570  0.29381122     0.91700
O183        O  0.10215326  0.79398557  0.30614009    -0.81900
O184        O  0.14845814  0.73001085  0.27893641    -0.75400
Al185      Al  0.06460653  0.75096782  0.27596068     1.90100
O186        O  0.12766042  0.75758613  0.33260711    -0.74500
O187        O  0.09627705  0.64631153  0.29412450    -0.74300
O188        O  0.07279331  0.67383831  0.34827851    -0.80000
O189        O  0.02446578  0.60897022  0.30182213    -0.78200
O190        O  0.05959267  0.70240340  0.29459385    -1.14300
O191        O  0.00522697  0.64442964  0.25312324    -0.73500
C192        C  0.01092933  0.67484421  0.23430860     0.97200
C193        C  0.12520286  0.79281594  0.32824828     0.93600
Al194      Al  0.10713258  0.70202746  0.31201748     1.55600
O195        O  0.01361157  0.75064606  0.29565546    -0.78200
C196        C  0.06099327  0.60905120  0.29711657     0.97700
C197        C  0.14629507  0.75069854  0.25590643     0.92600
O198        O  0.11477449  0.75990268  0.25280922    -0.83500
O199        O  0.27052600  0.94256511  0.17930426    -0.82900
C200        C  0.33747880  0.96154417  0.06298297     0.96400
O201        O  0.35923887  0.98813922  0.08453673    -0.72100
O202        O  0.32082433  0.02493634  0.11642036    -0.75600
Al203      Al  0.34618290  0.98801463  0.12692978     1.49000
C204        C  0.28585407  0.02474675  0.12607696     0.91700
O205        O  0.21048178  0.91078477  0.10375077    -0.81900
O206        O  0.28074995  0.85534620  0.14066986    -0.75400
Al207      Al  0.24402050  0.92794130  0.14109583     1.90100
O208        O  0.23030478  0.86033818  0.09292781    -0.74500
O209        O  0.35580694  0.90480715  0.10883268    -0.74300
O210        O  0.30682270  0.92135206  0.06746354    -0.80000
O211        O  0.38270102  0.96237455  0.13885426    -0.78200
O212        O  0.29491854  0.93585305  0.12403590    -1.14300
O213        O  0.33995312  0.99569066  0.16931404    -0.73500
C214        C  0.30860188  0.97331630  0.18794137     0.97200
C215        C  0.20235031  0.87474363  0.09041333     0.93600
Al216      Al  0.29363163  0.88951667  0.10419052     1.55600
O217        O  0.25388094  0.98837574  0.13592074    -0.78200
C218        C  0.38712451  0.93234018  0.12550742     0.97700
C219        C  0.24650437  0.84655846  0.15673724     0.92600
O220        O  0.22375483  0.86665123  0.15250054    -0.83500
O221        O  0.74008974  0.65969331  0.15032283    -0.82900
C222        C  0.67603058  0.63464784  0.26773199     0.96400
O223        O  0.65420910  0.63742997  0.24511139    -0.72100
O224        O  0.69267202  0.70718042  0.20888360    -0.75600
Al225      Al  0.66714480  0.64431111  0.20231345     1.49000
C226        C  0.72619771  0.73766725  0.19537030     0.91700
O227        O  0.80115493  0.70525465  0.22441704    -0.81900
O228        O  0.73547165  0.57570010  0.19603112    -0.75400
Al229      Al  0.76852194  0.68100656  0.18762385     1.90100
O230        O  0.78497306  0.63914276  0.24184607    -0.74500
O231        O  0.65926962  0.55500852  0.22682386    -0.74300
O232        O  0.70727425  0.62461899  0.26487376    -0.80000
O233        O  0.63130372  0.58186235  0.19406425    -0.78200
O234        O  0.71864712  0.64274507  0.20698570    -1.14300
O235        O  0.67277639  0.65161192  0.15890738    -0.73500
C236        C  0.70197099  0.65229615  0.14067272     0.97200
C237        C  0.80958661  0.68166653  0.24257009     0.93600
Al238      Al  0.72153455  0.60181427  0.23041122     1.55600
O239        O  0.75689424  0.73017658  0.18600449    -0.78200
C240        C  0.62715438  0.54940778  0.20968226     0.97700
C241        C  0.76958237  0.59830295  0.17936081     0.92600
O242        O  0.79250610  0.64047283  0.18260120    -0.83500
O243        O  0.94777965  0.66093229  0.09698703    -0.82900
C244        C  0.97364678  0.62475851  0.47929675     0.96400
O245        O  0.00083175  0.62909055  0.50059934    -0.72100
O246        O  0.03370508  0.70246092  0.03283240    -0.75600
Al247      Al  0.00012601  0.64063328  0.04323518     1.49000
C248        C  0.03192470  0.73468600  0.04514578     0.91700
O249        O  0.92156844  0.69597760  0.02266648    -0.81900
O250        O  0.86494770  0.56976133  0.05664084    -0.75400
Al251      Al  0.93511842  0.67666031  0.05964314     1.90100
O252        O  0.87075221  0.62814354  0.00912317    -0.74500
O253        O  0.91860381  0.54831772  0.02433189    -0.74300
O254        O  0.93260892  0.61348687  0.48401501    -0.80000
O255        O  0.97742076  0.57931634  0.05404144    -0.78200
O256        O  0.94581188  0.63692158  0.04105170    -1.14300
O257        O  0.00776523  0.65413309  0.08633654    -0.73500
C258        C  0.98218663  0.65863024  0.10539171     0.97200
C259        C  0.88770889  0.67047622  0.00667701     0.93600
Al260      Al  0.90031165  0.59325300  0.02028531     1.55600
O261        O  0.99534224  0.72724515  0.05736668    -0.78200
C262        C  0.94788914  0.54528432  0.04026521     0.97700
C263        C  0.85447607  0.59330380  0.07347885     0.92600
O264        O  0.87198410  0.63520835  0.06877031    -0.83500
C265        C  0.84430054  0.57438392  0.12831152    -0.03000
C266        C  0.82449189  0.57410958  0.10026085     0.06700
C267        C  0.77957276  0.56623191  0.09988654    -0.03100
C268        C  0.75785019  0.56570247  0.12726079    -0.03100
C269        C  0.78273070  0.57765512  0.15458513     0.06800
C270        C  0.82540511  0.57983025  0.15523241    -0.03300
Br271      Br  0.85877710  0.59252134  0.19263719    -0.01800
Br272      Br  0.89440136  0.56298448  0.12973040    -0.01900
Br273      Br  0.69492624  0.55005593  0.12733295    -0.01900
Br274      Br  0.74832243  0.55557303  0.06193070    -0.01900
C275        C  0.07594241  0.81069839  0.07066320    -0.03000
C276        C  0.07451425  0.77952216  0.04894638     0.06700
C277        C  0.11626710  0.78808323  0.03576397    -0.03100
C278        C  0.15795879  0.82249826  0.04744496    -0.03100
C279        C  0.15881657  0.84679131  0.07361818     0.06800
C280        C  0.11714058  0.84067598  0.08496823    -0.03300
Br281      Br  0.11428467  0.86698785  0.12291124    -0.01800
Br282      Br  0.02297310  0.81622090  0.07942548    -0.01900
Br283      Br  0.21394252  0.83601254  0.02739939    -0.01900
Br284      Br  0.11748795  0.75444939  0.00094349    -0.01900
C285        C  0.22427250  0.80075224  0.23534141    -0.03000
C286        C  0.18009055  0.76470666  0.23130271     0.06700
C287        C  0.16490130  0.74864977  0.20186953    -0.03100
C288        C  0.18968722  0.77280897  0.17660061    -0.03100
C289        C  0.23097617  0.81237014  0.18069760     0.06800
C290        C  0.25000895  0.82413777  0.20988463    -0.03300
Br291      Br  0.30985916  0.87392000  0.21491714    -0.01800
Br292      Br  0.24752846  0.82039711  0.27551435    -0.01900
Br293      Br  0.16578735  0.75404940  0.13631259    -0.01900
Br294      Br  0.10959254  0.69410918  0.19615562    -0.01900
C295        C  0.02072013  0.68777272  0.40658731    -0.03000
C296        C  0.01981147  0.65367475  0.38820838     0.06700
C297        C  0.00273334  0.60974706  0.39949319    -0.03100
C298        C  0.98856152  0.60036918  0.42968100    -0.03100
C299        C  0.99036587  0.63465526  0.44823472     0.06800
C300        C  0.00521322  0.67803876  0.43648048    -0.03300
Br301      Br  0.00163209  0.72321627  0.46079050    -0.01800
Br302      Br  0.04171898  0.74725285  0.39038352    -0.01900
Br303      Br  0.96445743  0.54025324  0.44533334    -0.01900
Br304      Br  0.99633199  0.56206345  0.37301616    -0.01900
C305        C  0.98379101  0.69209249  0.18658963    -0.03000
C306        C  0.99709836  0.66428290  0.20209664     0.06700
C307        C  0.00289906  0.63187255  0.18555178    -0.03100
C308        C  0.00201973  0.63225091  0.15363198    -0.03100
C309        C  0.99132953  0.66226390  0.13827694     0.06800
C310        C  0.98211802  0.69208730  0.15514549    -0.03300
Br311      Br  0.96894419  0.73554002  0.13592151    -0.01800
Br312      Br  0.96384767  0.72835990  0.20813946    -0.01900
Br313      Br  0.01484890  0.59112950  0.13126470    -0.01900
Br314      Br  0.01330454  0.58759327  0.20589976    -0.01900
C315        C  0.85011784  0.67897168  0.28977766    -0.03000
C316        C  0.84976200  0.70251984  0.26353642     0.06700
C317        C  0.88978943  0.74338351  0.25666913    -0.03100
C318        C  0.93082419  0.75475741  0.27215379    -0.03100
C319        C  0.93271378  0.72364474  0.29227760     0.06800
C320        C  0.89157567  0.68862441  0.30343720    -0.03300
Br321      Br  0.89249851  0.65239682  0.33666133    -0.01800
Br322      Br  0.79427316  0.63396945  0.30773407    -0.01900
Br323      Br  0.98480483  0.81121131  0.26423089    -0.01900
Br324      Br  0.89098459  0.78251254  0.22470449    -0.01900
C325        C  0.51226776  0.96880891  0.11846956    -0.03000
C326        C  0.51472933  0.93134636  0.13018853     0.06700
C327        C  0.47409136  0.89314641  0.13961279    -0.03100
C328        C  0.43212043  0.89291821  0.13756028    -0.03100
C329        C  0.43062141  0.93153704  0.12764351     0.06800
C330        C  0.47093654  0.96942753  0.11819929    -0.03300
Br331      Br  0.46973105  0.02226562  0.10350033    -0.01800
Br332      Br  0.56442981  0.01879253  0.10032469    -0.01900
Br333      Br  0.37674477  0.84019461  0.14938210    -0.01900
Br334      Br  0.47535274  0.84176590  0.15694616    -0.01900
C335        C  0.73045823  0.83207948  0.14729130    -0.03000
C336        C  0.70926310  0.84955891  0.16648985     0.06700
C337        C  0.70072539  0.83495921  0.19685772    -0.03100
C338        C  0.70994303  0.80097867  0.20718514    -0.03100
C339        C  0.72675455  0.78040370  0.18716403     0.06800
C340        C  0.73849180  0.79739656  0.15740567    -0.03300
Br341      Br  0.76122189  0.77062438  0.12848942    -0.01800
Br342      Br  0.74532748  0.85181456  0.10575034    -0.01900
Br343      Br  0.70026484  0.78319911  0.24905663    -0.01900
Br344      Br  0.67668613  0.86151011  0.22473636    -0.01900
C345        C  0.61949458  0.97386392  0.27446952    -0.03000
C346        C  0.66344056  0.99375050  0.28708481     0.06700
C347        C  0.69966764  0.99620500  0.27002338    -0.03100
C348        C  0.69298890  0.98314088  0.23950427    -0.03100
C349        C  0.64981402  0.96681788  0.22613227     0.06800
C350        C  0.61265140  0.96037700  0.24397623    -0.03300
Br351      Br  0.55290348  0.93552405  0.22629142    -0.01800
Br352      Br  0.56898375  0.96651876  0.29865462    -0.01900
Br353      Br  0.74268377  0.98641120  0.21614076    -0.01900
Br354      Br  0.75775232  0.01523311  0.28900898    -0.01900
C355        C  0.63280355  0.98802408  0.02172563    -0.03000
C356        C  0.67021388  0.01266547  0.04082740     0.06700
C357        C  0.71111371  0.04553546  0.02852926    -0.03100
C358        C  0.71801246  0.04830587  0.49717243    -0.03100
C359        C  0.68218549  0.01966628  0.47726218     0.06800
C360        C  0.63862913  0.99092988  0.48997652    -0.03300
Br361      Br  0.58751843  0.95019775  0.46537172    -0.01800
Br362      Br  0.57490015  0.94654509  0.03928315    -0.01900
Br363      Br  0.77829537  0.09056160  0.48343384    -0.01900
Br364      Br  0.75769136  0.08716683  0.05549595    -0.01900
C365        C  0.99003636  0.45986301  0.03611691    -0.03000
C366        C  0.95119249  0.41947894  0.04514018     0.06700
C367        C  0.91077903  0.42085724  0.05174586    -0.03100
C368        C  0.90916131  0.46137351  0.04881457    -0.03100
C369        C  0.94870581  0.50193515  0.04182383     0.06800
C370        C  0.98906611  0.50081869  0.03530480    -0.03300
Br371      Br  0.04292882  0.55508568  0.02318873    -0.01800
Br372      Br  0.04463636  0.45989013  0.02292518    -0.01900
Br373      Br  0.85243113  0.46110275  0.05493173    -0.01900
Br374      Br  0.85790178  0.36865430  0.06726845    -0.01900
C375        C  0.83422362  0.20711269  0.42353155    -0.03000
C376        C  0.78766035  0.18013480  0.42788508     0.06700
C377        C  0.76900761  0.17949655  0.45634671    -0.03100
C378        C  0.79781829  0.20124881  0.48130100    -0.03100
C379        C  0.84551334  0.22129937  0.47792709     0.06800
C380        C  0.86324723  0.22420656  0.44847230    -0.03300
Br381      Br  0.92625212  0.24462361  0.44107850    -0.01800
Br382      Br  0.85819106  0.21459183  0.38310490    -0.01900
Br383      Br  0.77125823  0.19623632  0.02059796    -0.01900
Br384      Br  0.70443339  0.14419359  0.46154980    -0.01900
C385        C  0.86474715  0.11131396  0.09099993    -0.03000
C386        C  0.86744340  0.15317519  0.09868377     0.06700
C387        C  0.84265716  0.15413016  0.12433187    -0.03100
C388        C  0.80909950  0.11362443  0.13723329    -0.03100
C389        C  0.80051820  0.07193374  0.12531860     0.06800
C390        C  0.83186723  0.07107454  0.10464732    -0.03300
Br391      Br  0.82923861  0.01494657  0.09349832    -0.01800
Br392      Br  0.90402503  0.10665281  0.06117688    -0.01900
Br393      Br  0.77543316  0.11454560  0.17214256    -0.01900
Br394      Br  0.85473689  0.21005290  0.14324443    -0.01900
C395        C  0.69082137  0.68312128  0.34619251    -0.03000
C396        C  0.64882576  0.65314412  0.35927257     0.06700
C397        C  0.61426933  0.61934740  0.34160771    -0.03100
C398        C  0.62265264  0.61389898  0.31121763    -0.03100
C399        C  0.66514202  0.64306508  0.29835317     0.06800
C400        C  0.69883044  0.67834716  0.31569693    -0.03300
Br401      Br  0.75586024  0.72054665  0.29762566    -0.01800
Br402      Br  0.73726734  0.73103769  0.37013629    -0.01900
Br403      Br  0.57747412  0.56422122  0.28799704    -0.01900
Br404      Br  0.55657766  0.57890660  0.35960160    -0.01900
C405        C  0.72012734  0.65114999  0.05590266    -0.03000
C406        C  0.67675193  0.63754791  0.04451548     0.06700
C407        C  0.63970407  0.61942485  0.06422947    -0.03100
C408        C  0.64727165  0.62322243  0.09577507    -0.03100
C409        C  0.69246891  0.64475861  0.10751042     0.06800
C410        C  0.72891703  0.65661599  0.08689933    -0.03300
Br411      Br  0.79227583  0.68270484  0.09878517    -0.01800
Br412      Br  0.76689969  0.65924799  0.02818472    -0.01900
Br413      Br  0.59485684  0.59748675  0.12177158    -0.01900
Br414      Br  0.57911935  0.58725203  0.04779140    -0.01900
C415        C  0.69080384  0.83670376  0.38550926    -0.03000
C416        C  0.70273711  0.83113849  0.41541869     0.06700
C417        C  0.72772627  0.87046593  0.43348588    -0.03100
C418        C  0.73675731  0.91294349  0.42273406    -0.03100
C419        C  0.71970464  0.91705451  0.39458693     0.06800
C420        C  0.69855008  0.87933151  0.37549125    -0.03300
Br421      Br  0.68121764  0.88691130  0.33526814    -0.01800
Br422      Br  0.66456538  0.78687888  0.35749640    -0.01900
Br423      Br  0.76987580  0.96546209  0.44803857    -0.01900
Br424      Br  0.74663017  0.86825229  0.47458356    -0.01900
C425        C  0.59872150  0.75138287  0.04762843    -0.03000
C426        C  0.60670847  0.76434603  0.01714608     0.06700
C427        C  0.61346674  0.80682191  0.00861851    -0.03100
C428        C  0.62061384  0.83890436  0.03085171    -0.03100
C429        C  0.61396697  0.82674814  0.06173487     0.06800
C430        C  0.60061226  0.78185106  0.06982626    -0.03300
Br431      Br  0.59187225  0.76333777  0.11159272    -0.01800
Br432      Br  0.58784904  0.69259695  0.05901515    -0.01900
Br433      Br  0.64618548  0.90037563  0.01826869    -0.01900
Br434      Br  0.61755765  0.82282531  0.46645090    -0.01900
C435        C  0.81163583  0.67637497  0.44570640    -0.03000
C436        C  0.80192731  0.70867772  0.45821951     0.06700
C437        C  0.83188453  0.73853899  0.48026712    -0.03100
C438        C  0.86263864  0.72815130  0.99522723    -0.03100
C439        C  0.86572934  0.68961217  0.98654300     0.06800
C440        C  0.84375009  0.66707860  0.45961576    -0.03300
Br441      Br  0.85726665  0.62353622  0.44147379    -0.01800
Br442      Br  0.78031621  0.64494222  0.40950059    -0.01900
Br443      Br  0.89347463  0.76266338  0.03079408    -0.01900
Br444      Br  0.82760561  0.79059281  0.99286356    -0.01900
C445        C  0.54166348  0.50442848  0.20371469    -0.03000
C446        C  0.58365544  0.50527117  0.20861934     0.06700
C447        C  0.58308946  0.46374637  0.21323898    -0.03100
C448        C  0.54150513  0.42273192  0.21365006    -0.03100
C449        C  0.50010789  0.42212249  0.20767829     0.06800
C450        C  0.50081193  0.46325772  0.20190784    -0.03300
Br451      Br  0.44616887  0.46391046  0.18943237    -0.01800
Br452      Br  0.53783945  0.55924419  0.20169033    -0.01900
Br453      Br  0.54119348  0.36753818  0.22396825    -0.01900
Br454      Br  0.63901350  0.46180842  0.21780930    -0.01900
C455        C  0.32249036  0.10975940  0.11892999    -0.03000
C456        C  0.28586735  0.06901610  0.12978151     0.06700
C457        C  0.25443855  0.07255682  0.14918584    -0.03100
C458        C  0.26588821  0.11384759  0.16378326    -0.03100
C459        C  0.30676997  0.15348730  0.15658072     0.06800
C460        C  0.33201810  0.15157511  0.13170700    -0.03300
Br461      Br  0.37835760  0.20646341  0.11367960    -0.01800
Br462      Br  0.35921675  0.10959180  0.08558442    -0.01900
Br463      Br  0.22587317  0.11404252  0.19471076    -0.01900
Br464      Br  0.19412080  0.02227825  0.15419665    -0.01900
C465        C  0.52263918  0.07464640  0.34916530    -0.03000
C466        C  0.50041423  0.06801246  0.37704933     0.06700
C467        C  0.52335750  0.06760474  0.40366244    -0.03100
C468        C  0.56316291  0.06427370  0.40179494    -0.03100
C469        C  0.58295213  0.06625108  0.37350109     0.06800
C470        C  0.56400646  0.07411536  0.34735796    -0.03300
Br471      Br  0.59387646  0.08303796  0.30894555    -0.01800
Br472      Br  0.49985370  0.09064958  0.31434212    -0.01900
Br473      Br  0.59086695  0.05779590  0.43821443    -0.01900
Br474      Br  0.50301527  0.07530239  0.44273047    -0.01900
C475        C  0.42081696  0.21689241  0.32179985    -0.03000
C476        C  0.41173550  0.17215910  0.31870548     0.06700
C477        C  0.41164732  0.15558238  0.28952123    -0.03100
C478        C  0.41220732  0.17990465  0.26377207    -0.03100
C479        C  0.41554471  0.22231646  0.26697835     0.06800
C480        C  0.42353073  0.24222397  0.29584756    -0.03300
Br481      Br  0.43559391  0.30309815  0.29969264    -0.01800
Br482      Br  0.42773515  0.24242777  0.36150194    -0.01900
Br483      Br  0.40508785  0.15404258  0.22398134    -0.01900
Br484      Br  0.41061340  0.09964573  0.28438347    -0.01900
C485        C  0.21599414  0.87573686  0.38352170    -0.03000
C486        C  0.21765100  0.91678807  0.37543945     0.06700
C487        C  0.17962465  0.91388932  0.35983942    -0.03100
C488        C  0.14796669  0.87329052  0.34546735    -0.03100
C489        C  0.15186760  0.83369442  0.34840204     0.06800
C490        C  0.18293891  0.83450121  0.37061636    -0.03300
Br491      Br  0.18039215  0.77974969  0.38534084    -0.01800
Br492      Br  0.25709912  0.87475780  0.41373270    -0.01900
Br493      Br  0.09854879  0.87300118  0.32309446    -0.01900
Br494      Br  0.16792390  0.96408369  0.36042480    -0.01900
C495        C  0.28067825  0.98554835  0.23696094    -0.03000
C496        C  0.31511088  0.98298919  0.22053642     0.06700
C497        C  0.35305434  0.98569804  0.23589866    -0.03100
C498        C  0.35532901  0.98872122  0.26759016    -0.03100
C499        C  0.32288578  0.99518343  0.28361687     0.06800
C500        C  0.28526172  0.99312859  0.26810436    -0.03300
Br501      Br  0.23832643  0.99929823  0.28913813    -0.01800
Br502      Br  0.22714465  0.98032462  0.21718703    -0.01900
Br503      Br  0.40351189  0.98477397  0.28846890    -0.01900
Br504      Br  0.40199352  0.98488416  0.21397469    -0.01900
C505        C  0.32093939  0.99570773  0.01868949    -0.03000
C506        C  0.34692343  0.97819420  0.03185688     0.06700
C507        C  0.37898964  0.97330711  0.01456931    -0.03100
C508        C  0.38537545  0.98622004  0.48401432    -0.03100
C509        C  0.36295488  0.00846446  0.47156856     0.06800
C510        C  0.32918824  0.01121935  0.48874697    -0.03300
Br511      Br  0.28955898  0.03021945  0.47018978    -0.01800
Br512      Br  0.27275679  0.99657824  0.04152326    -0.01900
Br513      Br  0.42130866  0.96908813  0.45932294    -0.01900
Br514      Br  0.41384838  0.94852840  0.03296979    -0.01900
C515        C  0.10180732  0.52179899  0.30420514    -0.03000
C516        C  0.06207825  0.48143231  0.29721740     0.06700
C517        C  0.02185403  0.48272038  0.29055323    -0.03100
C518        C  0.02180955  0.52413286  0.28939569    -0.03100
C519        C  0.06189476  0.56524750  0.29623148     0.06800
C520        C  0.10181355  0.56330951  0.30406651    -0.03300
Br521      Br  0.15682931  0.61640368  0.31646236    -0.01800
Br522      Br  0.15582410  0.51971390  0.31614028    -0.01900
Br523      Br  0.96605329  0.52271491  0.27695244    -0.01900
Br524      Br  0.96627737  0.42750697  0.28219851    -0.01900
C525        C  0.21606464  0.32454768  0.20004854    -0.03000
C526        C  0.21975706  0.28628003  0.20812300     0.06700
C527        C  0.18326380  0.25188496  0.22426402    -0.03100
C528        C  0.15272449  0.26129839  0.24025162    -0.03100
C529        C  0.15388033  0.30322648  0.23652304     0.06800
C530        C  0.18260523  0.33240590  0.21358348    -0.03300
Br531      Br  0.17567226  0.38241820  0.19940526    -0.01800
Br532      Br  0.25475913  0.36530833  0.16920965    -0.01900
Br533      Br  0.11275422  0.21691517  0.26879934    -0.01900
Br534      Br  0.17292746  0.19090868  0.22277145    -0.01900
C535        C  0.00756813  0.34943691  0.44045215    -0.03000
C536        C  0.02687618  0.32936580  0.45869080     0.06700
C537        C  0.05524257  0.31496127  0.44553109    -0.03100
C538        C  0.05996446  0.31476548  0.41405876    -0.03100
C539        C  0.03616584  0.33004148  0.39484027     0.06800
C540        C  0.01203598  0.34987889  0.40870580    -0.03300
Br541      Br  0.98486318  0.37869221  0.38546375    -0.01800
Br542      Br  0.97123592  0.37246191  0.45886304    -0.01900
Br543      Br  0.09967752  0.29267765  0.39932863    -0.01900
Br544      Br  0.08945841  0.29708132  0.47133234    -0.01900
C545        C  0.00116917  0.37432061  0.18870483    -0.03000
C546        C  0.01248241  0.34517857  0.20440731     0.06700
C547        C  0.00954855  0.30715951  0.18972703    -0.03100
C548        C  0.99644304  0.29888665  0.15925546    -0.03100
C549        C  0.98512778  0.32799259  0.14354236     0.06800
C550        C  0.98649748  0.36516334  0.15843673    -0.03300
Br551      Br  0.97139425  0.40518114  0.13667552    -0.01800
Br552      Br  0.01033651  0.42905465  0.20756356    -0.01900
Br553      Br  0.99469409  0.24801504  0.13877108    -0.01900
Br554      Br  0.02480082  0.26702295  0.21121058    -0.01900
C555        C  0.93704576  0.17640966  0.33287755    -0.03000
C556        C  0.93928206  0.20233863  0.30720585     0.06700
C557        C  0.89882877  0.18969695  0.29074566    -0.03100
C558        C  0.85642155  0.15588853  0.30171060    -0.03100
C559        C  0.85350709  0.13361713  0.32939141     0.06800
C560        C  0.89466618  0.14266065  0.34396036    -0.03300
Br561      Br  0.89421891  0.11302729  0.38132116    -0.01800
Br562      Br  0.99137504  0.18896187  0.35518953    -0.01900
Br563      Br  0.80239111  0.14090986  0.27835292    -0.01900
Br564      Br  0.90138618  0.21871749  0.25273232    -0.01900
C565        C  0.51367787  0.51994902  0.46593299    -0.03000
C566        C  0.51512187  0.56097940  0.45779115     0.06700
C567        C  0.47332409  0.56078961  0.45322276    -0.03100
C568        C  0.43162137  0.52015445  0.45498138    -0.03100
C569        C  0.43090224  0.47901196  0.46045220     0.06800
C570        C  0.47219192  0.47931582  0.46631031    -0.03300
Br571      Br  0.47251717  0.42419597  0.47650022    -0.01800
Br572      Br  0.56754574  0.51837619  0.47934958    -0.01900
Br573      Br  0.37530458  0.52079971  0.44859137    -0.01900
Br574      Br  0.47158060  0.61532527  0.44383994    -0.01900
C575        C  0.16917508  0.31219206  0.04526593    -0.03000
C576        C  0.16827860  0.28733042  0.51940751     0.06700
C577        C  0.12881287  0.24498785  0.51458142    -0.03100
C578        C  0.08809186  0.23479861  0.52981377    -0.03100
C579        C  0.08708536  0.26686600  0.04957227     0.06800
C580        C  0.12857308  0.30189339  0.06021430    -0.03300
Br581      Br  0.12877576  0.33606335  0.09498027    -0.01800
Br582      Br  0.22561074  0.35917459  0.06129557    -0.01900
Br583      Br  0.03338364  0.17916034  0.52119089    -0.01900
Br584      Br  0.12793233  0.20202425  0.48575128    -0.01900
C585        C  0.23237867  0.40905868  0.34893687    -0.03000
C586        C  0.19107743  0.40958141  0.35000927     0.06700
C587        C  0.17575786  0.41667344  0.37796674    -0.03100
C588        C  0.19567272  0.41266550  0.40505371    -0.03100
C589        C  0.23387844  0.40647008  0.40398333     0.06800
C590        C  0.25506924  0.41035106  0.37595743    -0.03300
Br591      Br  0.31526425  0.41846858  0.37468467    -0.01800
Br592      Br  0.25628661  0.40425408  0.31049688    -0.01900
Br593      Br  0.17045255  0.41454196  0.44348719    -0.01900
Br594      Br  0.12693210  0.43041923  0.37892337    -0.01900
C595        C  0.39021475  0.38337384  0.06851877    -0.03000
C596        C  0.34976144  0.35166866  0.05432589     0.06700
C597        C  0.31901846  0.31238220  0.06967695    -0.03100
C598        C  0.32872772  0.30478452  0.09922690    -0.03100
C599        C  0.36962466  0.33602352  0.11321898     0.06800
C600        C  0.40070828  0.37495982  0.09772226    -0.03300
Br601      Br  0.45834967  0.41546097  0.11598630    -0.01800
Br602      Br  0.42950821  0.43952219  0.04883486    -0.01900
Br603      Br  0.28532810  0.25218465  0.12088770    -0.01900
Br604      Br  0.26367129  0.26880870  0.05010041    -0.01900
C605        C  0.36165882  0.35241216  0.35059391    -0.03000
C606        C  0.32091499  0.32051366  0.36460075     0.06700
C607        C  0.28528243  0.28812980  0.34671714    -0.03100
C608        C  0.28975637  0.28806835  0.31541373    -0.03100
C609        C  0.33057754  0.31871752  0.30145474     0.06800
C610        C  0.36593797  0.35224721  0.31887505    -0.03300
Br611      Br  0.41948041  0.39839844  0.29937891    -0.01800
Br612      Br  0.41138699  0.39678033  0.37440702    -0.01900
Br613      Br  0.23826262  0.24718903  0.29137635    -0.01900
Br614      Br  0.23083807  0.24093320  0.36473719    -0.01900
C615        C  0.31970236  0.19511028  0.46713105    -0.03000
C616        C  0.28502022  0.20237975  0.45492426     0.06700
C617        C  0.25379594  0.16982522  0.43444766    -0.03100
C618        C  0.26470883  0.13953558  0.41997777    -0.03100
C619        C  0.30297921  0.13625413  0.42937130     0.06800
C620        C  0.32781279  0.16143027  0.45493612    -0.03300
Br621      Br  0.37352942  0.15055186  0.47345079    -0.01800
Br622      Br  0.35645532  0.23022150  0.50093232    -0.01900
Br623      Br  0.22993221  0.10769691  0.38475314    -0.01900
Br624      Br  0.19478169  0.16409517  0.42712495    -0.01900
O625        O  0.27525420  0.32028352  0.90461014    -0.82900
C626        C  0.33930114  0.35880034  0.52333615     0.96400
O627        O  0.36123898  0.35435266  0.50169651    -0.72100
O628        O  0.31975375  0.27949305  0.97085846    -0.75600
Al629      Al  0.34709411  0.34096757  0.95952581     1.49000
C630        C  0.28663693  0.24712281  0.95796211     0.91700
O631        O  0.21360314  0.28309634  0.97901516    -0.81900
O632        O  0.27903350  0.40988351  0.94704467    -0.75400
Al633      Al  0.24649532  0.30377215  0.94222448     1.90100
O634        O  0.22975791  0.35006561  0.99449608    -0.74500
O635        O  0.35517665  0.43257686  0.97788726    -0.74300
O636        O  0.30747215  0.36750785  0.51891471    -0.80000
O637        O  0.38335589  0.40192803  0.94792112    -0.78200
O638        O  0.29602648  0.34382073  0.96148734    -1.14300
O639        O  0.34139811  0.32661407  0.91690145    -0.73500
C640        C  0.31253933  0.32299250  0.89713392     0.97200
C641        C  0.20617350  0.30759192  0.99684634     0.93600
Al642      Al  0.29303948  0.38668725  0.98273144     1.55600
O643        O  0.25811329  0.25436427  0.94456102    -0.78200
C644        C  0.38727024  0.43583791  0.96175193     0.97700
C645        C  0.24572240  0.38643435  0.92989582     0.92600
O646        O  0.22309232  0.34426626  0.93350814    -0.83500
O647        O  0.06606535  0.31630199  0.84991440    -0.82900
C648        C  0.03161725  0.35599143  0.73512849     0.96400
O649        O  0.00564158  0.34972795  0.75761149    -0.72100
O650        O  0.97575678  0.28002694  0.79442247    -0.75600
Al651      Al  0.01236238  0.34263496  0.80056844     1.49000
C652        C  0.98082697  0.24717441  0.80160643     0.91700
O653        O  0.09413312  0.29013238  0.77217100    -0.81900
O654        O  0.14664719  0.41385909  0.80890641    -0.75400
Al655      Al  0.07904059  0.30536309  0.81066978     1.90100
O656        O  0.14133413  0.35934641  0.76056294    -0.74500
O657        O  0.09112238  0.43508828  0.77853908    -0.74300
O658        O  0.07371040  0.36956983  0.73820967    -0.80000
O659        O  0.03483188  0.40444099  0.80941841    -0.78200
O660        O  0.06606905  0.34576004  0.79490853    -1.14300
O661        O  0.01314695  0.33483468  0.84366952    -0.73500
C662        C  0.03834297  0.32688792  0.86102195     0.97200
C663        C  0.12786382  0.31797107  0.75701511     0.93600
Al664      Al  0.10933467  0.39059175  0.77349024     1.55600
O665        O  0.02006654  0.25345013  0.80703359    -0.78200
C666        C  0.06300759  0.43823485  0.79524293     0.97700
C667        C  0.15855018  0.39031282  0.82469235     0.92600
O668        O  0.14121673  0.34839998  0.82002858    -0.83500
O669        O  0.32206468  0.04008265  0.82328741    -0.82900
C670        C  0.37241221  0.02693629  0.94044249     0.96400
O671        O  0.37236359  0.00232121  0.91889937    -0.72100
O672        O  0.29705112  0.96208824  0.88718811    -0.75600
Al673      Al  0.35864161  0.00105837  0.87655596     1.49000
C674        C  0.26127770  0.96123645  0.87821547     0.91700
O675        O  0.29390404  0.07499648  0.89742270    -0.81900
O676        O  0.41902063  0.13371751  0.86220297    -0.75400
Al677      Al  0.31124867  0.05715509  0.86088230     1.90100
O678        O  0.36226925  0.12695046  0.90855121    -0.74500
O679        O  0.44637035  0.08667123  0.89578334    -0.74300
O680        O  0.37893098  0.06648469  0.93570877    -0.80000
O681        O  0.42134649  0.03049392  0.86459781    -0.78200
O682        O  0.35559450  0.05181691  0.87857736    -1.14300
O683        O  0.34335692  0.99043174  0.83462489    -0.73500
C684        C  0.32998643  0.00907156  0.81561343     0.97200
C685        C  0.32017721  0.11087713  0.91122310     0.93600
Al686      Al  0.39795687  0.09921072  0.89880451     1.55600
O687        O  0.26362219  0.99686673  0.86800626    -0.78200
C688        C  0.45377379  0.06176231  0.87877283     0.97700
C689        C  0.39325031  0.14017224  0.84438280     0.92600
O690        O  0.35042306  0.11839581  0.84755187    -0.83500
O691        O  0.32989199  0.27169789  0.76289164    -0.82900
C692        C  0.37806763  0.32864040  0.64463671     0.96400
O693        O  0.37497844  0.35302488  0.66514969    -0.72100
O694        O  0.29885521  0.31912877  0.69543980    -0.75600
Al695      Al  0.36057161  0.34259740  0.70742656     1.49000
C696        C  0.26422692  0.28599314  0.70614148     0.91700
O697        O  0.29874368  0.20652956  0.68914362    -0.81900
O698        O  0.42423565  0.27159001  0.72562815    -0.75400
Al699      Al  0.31682445  0.24218064  0.72546264     1.90100
O700        O  0.36732103  0.22081488  0.67825499    -0.74500
O701        O  0.45174282  0.34599419  0.69161209    -0.74300
O702        O  0.38593871  0.29677884  0.65060022    -0.80000
O703        O  0.42206376  0.37665516  0.71991733    -0.78200
O704        O  0.36016114  0.29008007  0.70704291    -1.14300
O705        O  0.34569160  0.34011155  0.74959631    -0.73500
C706        C  0.33674449  0.31047570  0.76961388     0.97200
C707        C  0.32482716  0.19591567  0.67529458     0.93600
Al708      Al  0.40377737  0.28439927  0.68820797     1.55600
O709        O  0.26859662  0.25527831  0.71870061    -0.78200
C710        C  0.45599615  0.37908881  0.70676442     0.97700
C711        C  0.39816684  0.23904827  0.74236803     0.92600
O712        O  0.35564372  0.21896089  0.73828691    -0.83500
O713        O  0.69934162  0.69372421  0.50784512    -0.82900
C714        C  0.64262447  0.65588802  0.89182794     0.96400
O715        O  0.66726370  0.64825709  0.90977304    -0.72100
O716        O  0.72189955  0.66262398  0.95653616    -0.75600
Al717      Al  0.65752869  0.63827299  0.95145980     1.49000
C718        C  0.75500251  0.70200197  0.95535435     0.91700
O719        O  0.70497031  0.78073549  0.95204725    -0.81900
O720        O  0.60200001  0.72659595  0.97098280    -0.75400
Al721      Al  0.69849544  0.73335724  0.97756779     1.90100
O722        O  0.65080853  0.75137052  0.91868700    -0.74500
O723        O  0.56471361  0.64142412  0.95604074    -0.74300
O724        O  0.61349075  0.66632563  0.90128967    -0.80000
O725        O  0.59385444  0.59907784  0.94512963    -0.78200
O726        O  0.65581102  0.68957518  0.95574008    -1.14300
O727        O  0.64804868  0.62532315  0.49372408    -0.73500
C728        C  0.67362731  0.65244577  0.51375858     0.97200
C729        C  0.68582910  0.78510218  0.92890458     0.93600
Al730      Al  0.61135247  0.69554001  0.93821345     1.55600
O731        O  0.74752342  0.73463231  0.95553174    -0.78200
C732        C  0.56004922  0.60269011  0.95300865     0.97700
C733        C  0.62149417  0.74067633  0.99610132     0.92600
O734        O  0.65701007  0.73930805  0.50265953    -0.83500
O735        O  0.99595908  0.27516798  0.99755723    -0.82900
C736        C  0.97688723  0.32207554  0.61082625     0.96400
O737        O  0.00973597  0.32827379  0.59400053    -0.72100
O738        O  0.05129851  0.31150005  0.54868115    -0.75600
Al739      Al  0.01154503  0.33615965  0.55194704     1.49000
C740        C  0.04622067  0.27267119  0.55145478     0.91700
O741        O  0.91971666  0.19538567  0.55906912    -0.81900
O742        O  0.87186466  0.25627346  0.52663427    -0.75400
Al743      Al  0.95766519  0.23833167  0.53001886     1.90100
O744        O  0.88661061  0.22750591  0.58220411    -0.74500
O745        O  0.91950495  0.33906027  0.54393397    -0.74300
O746        O  0.93764994  0.31114614  0.60018924    -0.80000
O747        O  0.98981716  0.37825405  0.55658353    -0.78200
O748        O  0.95855566  0.28546679  0.54799726    -1.14300
O749        O  0.01522568  0.34564734  0.00947313    -0.73500
C750        C  0.01199111  0.31643739  0.99033898     0.97200
C751        C  0.89316930  0.19438268  0.57925394     0.93600
Al752      Al  0.90822803  0.28361315  0.56208640     1.55600
O753        O  0.00684639  0.23999899  0.55244087    -0.78200
C754        C  0.95353007  0.37678787  0.54851353     0.97700
C755        C  0.87671101  0.23552701  0.50460323     0.92600
O756        O  0.90870528  0.22676187  0.50452702    -0.83500
O757        O  0.73069267  0.03375037  0.93462498    -0.82900
C758        C  0.67203652  0.01348938  0.81763304     0.96400
O759        O  0.65421732  0.98759881  0.84014135    -0.72100
O760        O  0.67962924  0.95688757  0.88749641    -0.75600
Al761      Al  0.65840444  0.99880744  0.88261407     1.49000
C762        C  0.71753284  0.95871660  0.88812519     0.91700
O763        O  0.80101826  0.07469272  0.86249741    -0.81900
O764        O  0.73669858  0.13635572  0.88816008    -0.75400
Al765      Al  0.76132410  0.05375919  0.89672572     1.90100
O766        O  0.77831606  0.11779084  0.84213891    -0.74500
O767        O  0.65908334  0.08880521  0.86068744    -0.74300
O768        O  0.69724875  0.05592053  0.82042263    -0.80000
O769        O  0.61966013  0.02347656  0.88064478    -0.78200
O770        O  0.71213575  0.04901299  0.87802696    -1.14300
O771        O  0.65847007  0.00722360  0.92515715    -0.73500
C772        C  0.69069328  0.02005105  0.94392838     0.97200
C773        C  0.80836729  0.10654504  0.84501293     0.93600
Al774      Al  0.71705611  0.09474183  0.85497314     1.55600
O775        O  0.75298107  0.99598140  0.88671412    -0.78200
C776        C  0.62269879  0.05927979  0.87146047     0.97700
C777        C  0.76560925  0.14066620  0.90798521     0.92600
O778        O  0.77949353  0.11248236  0.91052013    -0.83500
O779        O  0.69951730  0.98320642  0.57705037    -0.82900
C780        C  0.64460894  0.95933762  0.69323358     0.96400
O781        O  0.66772926  0.99246930  0.67599520    -0.72100
O782        O  0.72013696  0.03615978  0.62852470    -0.75600
Al783      Al  0.65684963  0.99444342  0.63437312     1.49000
C784        C  0.75488915  0.03165830  0.62929795     0.91700
O785        O  0.71381636  0.90661027  0.63336023    -0.81900
O786        O  0.60500095  0.85618184  0.60877503    -0.75400
Al787      Al  0.70329267  0.94473086  0.60755420     1.90100
O788        O  0.65336647  0.87275371  0.66130268    -0.74500
O789        O  0.56550916  0.90054184  0.62876461    -0.74300
O790        O  0.61717693  0.92037950  0.68284675    -0.80000
O791        O  0.59348325  0.97017162  0.64180527    -0.78200
O792        O  0.65791950  0.94300800  0.62861302    -1.14300
O793        O  0.64587778  0.99819024  0.59236675    -0.73500
C794        C  0.67132465  0.99707005  0.57177371     0.97200
C795        C  0.69173855  0.87866672  0.65359161     0.93600
Al796      Al  0.61395549  0.89201976  0.64416467     1.55600
O797        O  0.74982301  0.99279793  0.62997666    -0.78200
C798        C  0.55999974  0.93383301  0.63368606     0.97700
C799        C  0.62843568  0.86195477  0.58537510     0.92600
O800        O  0.66608984  0.89677823  0.58224892    -0.83500
O801        O  0.02900255  0.71592195  0.74237822    -0.82900
C802        C  0.03249734  0.66280496  0.85635980     0.96400
O803        O  0.00222310  0.65839739  0.83762603    -0.72100
O804        O  0.96817886  0.67928489  0.79041383    -0.75600
Al805      Al  0.00527779  0.65253238  0.79569618     1.49000
C806        C  0.97388345  0.71819360  0.79380566     0.91700
O807        O  0.10217464  0.79400308  0.80613777    -0.81900
O808        O  0.14847059  0.73003058  0.77894421    -0.75400
Al809      Al  0.06462117  0.75098521  0.77595754     1.90100
O810        O  0.12765135  0.75758653  0.83261646    -0.74500
O811        O  0.09628066  0.64633065  0.79411449    -0.74300
O812        O  0.07278957  0.67383647  0.84827461    -0.80000
O813        O  0.02447018  0.60898328  0.80181380    -0.78200
O814        O  0.05959852  0.70241806  0.79459202    -1.14300
O815        O  0.00523184  0.64444854  0.75311821    -0.73500
C816        C  0.01093967  0.67486472  0.73430355     0.97200
C817        C  0.12520821  0.79282300  0.82825322     0.93600
Al818      Al  0.10713389  0.70203719  0.81201822     1.55600
O819        O  0.01362892  0.75067117  0.79565004    -0.78200
C820        C  0.06099910  0.60906829  0.79710286     0.97700
C821        C  0.14630689  0.75070905  0.75590964     0.92600
O822        O  0.11478497  0.75990967  0.75280700    -0.83500
O823        O  0.27050845  0.94253390  0.67930288    -0.82900
C824        C  0.33750509  0.96152884  0.56298727     0.96400
O825        O  0.35925562  0.98812265  0.58454427    -0.72100
O826        O  0.32081770  0.02491724  0.61641288    -0.75600
Al827      Al  0.34617746  0.98799896  0.62693558     1.49000
C828        C  0.28585061  0.02473032  0.62607528     0.91700
O829        O  0.21048965  0.91077026  0.60374061    -0.81900
O830        O  0.28075358  0.85533519  0.64067176    -0.75400
Al831      Al  0.24401529  0.92792071  0.64109064     1.90100
O832        O  0.23031676  0.86032399  0.59292316    -0.74500
O833        O  0.35581351  0.90479939  0.60884360    -0.74300
O834        O  0.30684168  0.92133889  0.56746508    -0.80000
O835        O  0.38268740  0.96235616  0.63887446    -0.78200
O836        O  0.29491756  0.93583708  0.62403586    -1.14300
O837        O  0.33992894  0.99567710  0.66931862    -0.73500
C838        C  0.30857719  0.97329254  0.68794380     0.97200
C839        C  0.20236182  0.87472825  0.59040496     0.93600
Al840      Al  0.29364047  0.88950379  0.60419252     1.55600
O841        O  0.25387897  0.98835935  0.63592097    -0.78200
C842        C  0.38712033  0.93232785  0.62552656     0.97700
C843        C  0.24650289  0.84654362  0.65673410     0.92600
O844        O  0.22374751  0.86662873  0.65249020    -0.83500
O845        O  0.74009938  0.65968979  0.65033095    -0.82900
C846        C  0.67602942  0.63466583  0.76773409     0.96400
O847        O  0.65421340  0.63744984  0.74511149    -0.72100
O848        O  0.69268287  0.70719817  0.70888244    -0.75600
Al849      Al  0.66715328  0.64432651  0.70231617     1.49000
C850        C  0.72620292  0.73767916  0.69536083     0.91700
O851        O  0.80116044  0.70528120  0.72442077    -0.81900
O852        O  0.73548874  0.57571995  0.69604493    -0.75400
Al853      Al  0.76853037  0.68101963  0.68762912     1.90100
O854        O  0.78497995  0.63917387  0.74186095    -0.74500
O855        O  0.65927768  0.55501995  0.72682810    -0.74300
O856        O  0.70727255  0.62463560  0.76488072    -0.80000
O857        O  0.63130934  0.58187610  0.69407097    -0.78200
O858        O  0.71865503  0.64276059  0.70699249    -1.14300
O859        O  0.67278924  0.65162130  0.65891088    -0.73500
C860        C  0.70198161  0.65229361  0.64067954     0.97200
C861        C  0.80959456  0.68169887  0.74257756     0.93600
Al862      Al  0.72154250  0.60183341  0.73042140     1.55600
O863        O  0.75689754  0.73018536  0.68599577    -0.78200
C864        C  0.62716139  0.54941992  0.70968686     0.97700
C865        C  0.76960132  0.59832361  0.67937664     0.92600
O866        O  0.79252358  0.64049276  0.68261860    -0.83500
O867        O  0.94779691  0.66093476  0.59698601    -0.82900
C868        C  0.97366518  0.62477065  0.97929988     0.96400
O869        O  0.00084548  0.62910482  0.00060661    -0.72100
O870        O  0.03370188  0.70245959  0.53281000    -0.75600
Al871      Al  0.00013000  0.64063549  0.54322603     1.49000
C872        C  0.03193292  0.73468475  0.54513303     0.91700
O873        O  0.92158342  0.69598740  0.52267380    -0.81900
O874        O  0.86495153  0.56977251  0.55665155    -0.75400
Al875      Al  0.93513308  0.67666692  0.55964637     1.90100
O876        O  0.87075664  0.62815494  0.50913135    -0.74500
O877        O  0.91859590  0.54831405  0.52434171    -0.74300
O878        O  0.93262465  0.61349566  0.98401242    -0.80000
O879        O  0.97742645  0.57932159  0.55404083    -0.78200
O880        O  0.94581584  0.63692382  0.54105182    -1.14300
O881        O  0.00779018  0.65415360  0.58632622    -0.73500
C882        C  0.98221381  0.65864759  0.60538536     0.97200
C883        C  0.88772025  0.67048932  0.50668678     0.93600
Al884      Al  0.90030737  0.59325449  0.52029218     1.55600
O885        O  0.99535941  0.72724511  0.55736678    -0.78200
C886        C  0.94788857  0.54528528  0.54027090     0.97700
C887        C  0.85448692  0.59332010  0.57348948     0.92600
O888        O  0.87199808  0.63522407  0.56877793    -0.83500
C889        C  0.84432739  0.57442051  0.62832492    -0.03000
C890        C  0.82450993  0.57413258  0.60027528     0.06700
C891        C  0.77958660  0.56624300  0.59990376    -0.03100
C892        C  0.75786631  0.56571289  0.62727930    -0.03100
C893        C  0.78275300  0.57767852  0.65460133     0.06800
C894        C  0.82543457  0.57986958  0.65524581    -0.03300
Br895      Br  0.85882114  0.59258887  0.69264606    -0.01800
Br896      Br  0.89443374  0.56302948  0.62974372    -0.01900
Br897      Br  0.69493769  0.55004992  0.62735561    -0.01900
Br898      Br  0.74832729  0.55556837  0.56195044    -0.01900
C899        C  0.07595774  0.81069274  0.57065036    -0.03000
C900        C  0.07452610  0.77951704  0.54893230     0.06700
C901        C  0.11627758  0.78807075  0.53575205    -0.03100
C902        C  0.15797140  0.82247616  0.54743789    -0.03100
C903        C  0.15882969  0.84677300  0.57360976     0.06800
C904        C  0.11715475  0.84066037  0.58495923    -0.03300
Br905      Br  0.11429469  0.86694928  0.62291114    -0.01800
Br906      Br  0.02299565  0.81622989  0.57940833    -0.01900
Br907      Br  0.21395641  0.83596226  0.52740510    -0.01900
Br908      Br  0.11749193  0.75444251  0.50092619    -0.01900
C909        C  0.22428759  0.80073937  0.73533896    -0.03000
C910        C  0.18009878  0.76470475  0.73130454     0.06700
C911        C  0.16489932  0.74864957  0.70187283    -0.03100
C912        C  0.18967854  0.77280468  0.67660175    -0.03100
C913        C  0.23097473  0.81235797  0.68069504     0.06800
C914        C  0.25001924  0.82412081  0.70987946    -0.03300
Br915      Br  0.30987641  0.87389365  0.71490561    -0.01800
Br916      Br  0.24756110  0.82037284  0.77550963    -0.01900
Br917      Br  0.16575746  0.75405323  0.63631677    -0.01900
Br918      Br  0.10958725  0.69411509  0.69616399    -0.01900
C919        C  0.02076671  0.68778851  0.90659485    -0.03000
C920        C  0.01981328  0.65367794  0.88820676     0.06700
C921        C  0.00271016  0.60974506  0.89948762    -0.03100
C922        C  0.98855132  0.60037131  0.92967827    -0.03100
C923        C  0.99039126  0.63466703  0.94823900     0.06800
C924        C  0.00527094  0.67805928  0.93649073    -0.03300
Br925      Br  0.00174664  0.72325682  0.96081297    -0.01800
Br926      Br  0.04181088  0.74728095  0.89040078    -0.01900
Br927      Br  0.96442606  0.54025127  0.94532744    -0.01900
Br928      Br  0.99626387  0.56205206  0.87300294    -0.01900
C929        C  0.98381796  0.69212037  0.68657961    -0.03000
C930        C  0.99711599  0.66430586  0.70208980     0.06700
C931        C  0.00292032  0.63189614  0.68554621    -0.03100
C932        C  0.00205899  0.63228341  0.65362614    -0.03100
C933        C  0.99136707  0.66229302  0.63826911     0.06800
C934        C  0.98214949  0.69211424  0.65513531    -0.03300
Br935      Br  0.96896717  0.73555880  0.63590727    -0.01800
Br936      Br  0.96388030  0.72839591  0.70812472    -0.01900
Br937      Br  0.01492088  0.59118377  0.63125998    -0.01900
Br938      Br  0.01331359  0.58760991  0.70589586    -0.01900
C939        C  0.85013482  0.67902382  0.78978503    -0.03000
C940        C  0.84977601  0.70255974  0.76353862     0.06700
C941        C  0.88980679  0.74341444  0.75666026    -0.03100
C942        C  0.93084492  0.75478701  0.77214038    -0.03100
C943        C  0.93273317  0.72367962  0.79227014     0.06800
C944        C  0.89159485  0.68867100  0.80343867    -0.03300
Br945      Br  0.89251903  0.65245316  0.83666818    -0.01800
Br946      Br  0.79428983  0.63404988  0.80775683    -0.01900
Br947      Br  0.98482937  0.81123321  0.76420661    -0.01900
Br948      Br  0.89099873  0.78253342  0.72468945    -0.01900
C949        C  0.51226467  0.96881737  0.61849312    -0.03000
C950        C  0.51472978  0.93134867  0.63019653     0.06700
C951        C  0.47409288  0.89313807  0.63961171    -0.03100
C952        C  0.43212064  0.89290814  0.63756820    -0.03100
C953        C  0.43061894  0.93153161  0.62766574     0.06800
C954        C  0.47093135  0.96943011  0.61822839    -0.03300
Br955      Br  0.46971817  0.02226948  0.60354036    -0.01800
Br956      Br  0.56442355  0.01881897  0.60035912    -0.01900
Br957      Br  0.37674626  0.84017382  0.64938003    -0.01900
Br958      Br  0.47535296  0.84173912  0.65691469    -0.01900
C959        C  0.73042383  0.83204938  0.64725457    -0.03000
C960        C  0.70925549  0.84955382  0.66645585     0.06700
C961        C  0.70074199  0.83497967  0.69682959    -0.03100
C962        C  0.70995601  0.80099944  0.70716220    -0.03100
C963        C  0.72675483  0.78040985  0.68714367     0.06800
C964        C  0.73847451  0.79738165  0.65737916    -0.03300
Br965      Br  0.76121420  0.77060667  0.62847208    -0.01800
Br966      Br  0.74522245  0.85172202  0.60569709    -0.01900
Br967      Br  0.70029173  0.78324231  0.74903782    -0.01900
Br968      Br  0.67673806  0.86156386  0.72470922    -0.01900
C969        C  0.61951276  0.97389614  0.77446712    -0.03000
C970        C  0.66345886  0.99379314  0.78708484     0.06700
C971        C  0.69969091  0.99626478  0.77001871    -0.03100
C972        C  0.69301398  0.98319978  0.73949807    -0.03100
C973        C  0.64983560  0.96685594  0.72612590     0.06800
C974        C  0.61267068  0.96040210  0.74397357    -0.03300
Br975      Br  0.55291579  0.93551178  0.72629488    -0.01800
Br976      Br  0.56899880  0.96655326  0.79864775    -0.01900
Br977      Br  0.74271598  0.98648805  0.71613391    -0.01900
Br978      Br  0.75778256  0.01531504  0.78900020    -0.01900
C979        C  0.63280520  0.98808413  0.52170023    -0.03000
C980        C  0.67022456  0.01269400  0.54080215     0.06700
C981        C  0.71114118  0.04553182  0.52850050    -0.03100
C982        C  0.71798988  0.04831258  0.99720186    -0.03100
C983        C  0.68217685  0.01964834  0.97728943     0.06800
C984        C  0.63862648  0.99088237  0.99000227    -0.03300
Br985      Br  0.58752378  0.95013789  0.96539686    -0.01800
Br986      Br  0.57487977  0.94666648  0.53925678    -0.01900
Br987      Br  0.77826370  0.09060610  0.98347070    -0.01900
Br988      Br  0.75775190  0.08712753  0.55546157    -0.01900
C989        C  0.99004939  0.45987356  0.53611712    -0.03000
C990        C  0.95121211  0.41948689  0.54514644     0.06700
C991        C  0.91080125  0.42086324  0.55176618    -0.03100
C992        C  0.90917675  0.46137736  0.54883927    -0.03100
C993        C  0.94871065  0.50193790  0.54183022     0.06800
C994        C  0.98906848  0.50082414  0.53529773    -0.03300
Br995      Br  0.04291091  0.55508809  0.52315089    -0.01800
Br996      Br  0.04466071  0.45991535  0.52293540    -0.01900
Br997      Br  0.85245394  0.46110824  0.55498974    -0.01900
Br998      Br  0.85794047  0.36866114  0.56730573    -0.01900
C999        C  0.83415266  0.20714224  0.92355277    -0.03000
C1000       C  0.78759247  0.18015139  0.92791244     0.06700
C1001       C  0.76894621  0.17950886  0.95637737    -0.03100
C1002       C  0.79776443  0.20126061  0.98132893    -0.03100
C1003       C  0.84545873  0.22130898  0.97794819     0.06800
C1004       C  0.86318427  0.22423069  0.94848971    -0.03300
Br1005     Br  0.92619062  0.24466918  0.94108431    -0.01800
Br1006     Br  0.85810602  0.21464250  0.88312134    -0.01900
Br1007     Br  0.77130039  0.19621632  0.52056665    -0.01900
Br1008     Br  0.70437294  0.14420316  0.96158791    -0.01900
C1009       C  0.86475340  0.11130066  0.59096654    -0.03000
C1010       C  0.86746824  0.15316516  0.59866370     0.06700
C1011       C  0.84269044  0.15411857  0.62431613    -0.03100
C1012       C  0.80911696  0.11361241  0.63720790    -0.03100
C1013       C  0.80052354  0.07192078  0.62528557     0.06800
C1014       C  0.83186501  0.07105956  0.60460770    -0.03300
Br1015     Br  0.82920173  0.01492618  0.59342918    -0.01800
Br1016     Br  0.90401158  0.10663713  0.56112856    -0.01900
Br1017     Br  0.77543948  0.11453832  0.67210949    -0.01900
Br1018     Br  0.85481633  0.21004192  0.64324931    -0.01900
C1019       C  0.69078905  0.68316545  0.84618224    -0.03000
C1020       C  0.64880010  0.65317359  0.85926296     0.06700
C1021       C  0.61425455  0.61936062  0.84160169    -0.03100
C1022       C  0.62264930  0.61390222  0.81121653    -0.03100
C1023       C  0.66513327  0.64308296  0.79835157     0.06800
C1024       C  0.69880700  0.67838506  0.81568989    -0.03300
Br1025     Br  0.75583102  0.72059593  0.79761762    -0.01800
Br1026     Br  0.73721164  0.73110910  0.87012160    -0.01900
Br1027     Br  0.57750046  0.56418834  0.78800640    -0.01900
Br1028     Br  0.55656036  0.57891981  0.85959252    -0.01900
C1029       C  0.72013396  0.65113495  0.55591224    -0.03000
C1030       C  0.67675987  0.63754234  0.54452730     0.06700
C1031       C  0.63971174  0.61942082  0.56424146    -0.03100
C1032       C  0.64728084  0.62320684  0.59578646    -0.03100
C1033       C  0.69247887  0.64474692  0.60751934     0.06800
C1034       C  0.72892595  0.65660320  0.58690807    -0.03300
Br1035     Br  0.79228525  0.68269366  0.59879227    -0.01800
Br1036     Br  0.76689915  0.65921789  0.52819243    -0.01900
Br1037     Br  0.59486967  0.59744093  0.62178656    -0.01900
Br1038     Br  0.57912389  0.58727415  0.54780568    -0.01900
C1039       C  0.69080114  0.83672627  0.88550436    -0.03000
C1040       C  0.70276584  0.83115859  0.91540456     0.06700
C1041       C  0.72781119  0.87049040  0.93345909    -0.03100
C1042       C  0.73683917  0.91297156  0.92271461    -0.03100
C1043       C  0.71975034  0.91708461  0.89458149     0.06800
C1044       C  0.69856800  0.87936154  0.87548861    -0.03300
Br1045     Br  0.68123773  0.88695673  0.83526827    -0.01800
Br1046     Br  0.66448616  0.78689456  0.85749986    -0.01900
Br1047     Br  0.77000006  0.96549064  0.94801392    -0.01900
Br1048     Br  0.74681360  0.86828334  0.97453013    -0.01900
C1049       C  0.59873069  0.75137511  0.54763620    -0.03000
C1050       C  0.60669115  0.76432077  0.51714941     0.06700
C1051       C  0.61339693  0.80677532  0.50861258    -0.03100
C1052       C  0.62051941  0.83886013  0.53083961    -0.03100
C1053       C  0.61391526  0.82672583  0.56172697     0.06800
C1054       C  0.60060359  0.78184257  0.56982818    -0.03300
Br1055     Br  0.59189018  0.76335015  0.61159889    -0.01800
Br1056     Br  0.58792023  0.69261680  0.55903912    -0.01900
Br1057     Br  0.64598496  0.90031298  0.51824232    -0.01900
Br1058     Br  0.61766548  0.82289939  0.96646086    -0.01900
C1059       C  0.81160115  0.67633476  0.94569832    -0.03000
C1060       C  0.80190800  0.70865397  0.95820127     0.06700
C1061       C  0.83188169  0.73852883  0.98023672    -0.03100
C1062       C  0.86264045  0.72815911  0.49525570    -0.03100
C1063       C  0.86574589  0.68963335  0.48655778     0.06800
C1064       C  0.84371485  0.66703817  0.95960950    -0.03300
Br1065     Br  0.85720512  0.62346971  0.94147982    -0.01800
Br1066     Br  0.78026725  0.64488632  0.90949993    -0.01900
Br1067     Br  0.89344956  0.76264136  0.53083860    -0.01900
Br1068     Br  0.82758057  0.79057929  0.49291603    -0.01900
C1069       C  0.54166663  0.50444237  0.70373621    -0.03000
C1070       C  0.58366094  0.50528245  0.70862194     0.06700
C1071       C  0.58309676  0.46375453  0.71321791    -0.03100
C1072       C  0.54151215  0.42273807  0.71362511    -0.03100
C1073       C  0.50010868  0.42213166  0.70767919     0.06800
C1074       C  0.50081201  0.46327268  0.70193121    -0.03300
Br1075     Br  0.44616340  0.46393739  0.68948592    -0.01800
Br1076     Br  0.53784775  0.55926197  0.70173199    -0.01900
Br1077     Br  0.54121306  0.36753627  0.72389846    -0.01900
Br1078     Br  0.63902627  0.46181963  0.71775864    -0.01900
C1079       C  0.32248622  0.10974513  0.61892885    -0.03000
C1080       C  0.28586702  0.06900211  0.62978369     0.06700
C1081       C  0.25444247  0.07254447  0.64919162    -0.03100
C1082       C  0.26589217  0.11383795  0.66378607    -0.03100
C1083       C  0.30677072  0.15347926  0.65657935     0.06800
C1084       C  0.33201752  0.15156293  0.63170573    -0.03300
Br1085     Br  0.37836050  0.20644867  0.61367790    -0.01800
Br1086     Br  0.35919492  0.10957320  0.58557348    -0.01900
Br1087     Br  0.22588061  0.11403422  0.69471580    -0.01900
Br1088     Br  0.19412700  0.02226493  0.65420854    -0.01900
C1089       C  0.52263281  0.07465748  0.84919447    -0.03000
C1090       C  0.50039731  0.06801840  0.87707437     0.06700
C1091       C  0.52332190  0.06758319  0.90368991    -0.03100
C1092       C  0.56311669  0.06423038  0.90182642    -0.03100
C1093       C  0.58291914  0.06621992  0.87353472     0.06800
C1094       C  0.56399375  0.07411342  0.84739190    -0.03300
Br1095     Br  0.59388142  0.08305978  0.80898396    -0.01800
Br1096     Br  0.49986670  0.09067837  0.81436933    -0.01900
Br1097     Br  0.59079053  0.05771439  0.93824929    -0.01900
Br1098     Br  0.50297112  0.07527773  0.94275575    -0.01900
C1099       C  0.42080033  0.21691173  0.82179757    -0.03000
C1100       C  0.41172319  0.17217836  0.81871017     0.06700
C1101       C  0.41163714  0.15559393  0.78952949    -0.03100
C1102       C  0.41218780  0.17990399  0.76377607    -0.03100
C1103       C  0.41552905  0.22231902  0.76697458     0.06800
C1104       C  0.42351615  0.24223588  0.79584064    -0.03300
Br1105     Br  0.43557773  0.30311163  0.79967398    -0.01800
Br1106     Br  0.42771220  0.24245949  0.86149489    -0.01900
Br1107     Br  0.40504439  0.15401614  0.72399240    -0.01900
Br1108     Br  0.41061981  0.09966206  0.78440533    -0.01900
C1109       C  0.21600138  0.87575278  0.88352479    -0.03000
C1110       C  0.21763829  0.91679644  0.87544814     0.06700
C1111       C  0.17959661  0.91388301  0.85986093    -0.03100
C1112       C  0.14793591  0.87327631  0.84549756    -0.03100
C1113       C  0.15186999  0.83369668  0.84841145     0.06800
C1114       C  0.18296489  0.83451494  0.87061149    -0.03300
Br1115     Br  0.18048496  0.77977788  0.88530255    -0.01800
Br1116     Br  0.25710141  0.87478840  0.91374605    -0.01900
Br1117     Br  0.09845416  0.87293937  0.82317772    -0.01900
Br1118     Br  0.16787877  0.96406521  0.86045784    -0.01900
C1119       C  0.28063687  0.98550251  0.73696610    -0.03000
C1120       C  0.31507902  0.98296126  0.72054011     0.06700
C1121       C  0.35303007  0.98568668  0.73590207    -0.03100
C1122       C  0.35531263  0.98872640  0.76759275    -0.03100
C1123       C  0.32286767  0.99518718  0.78361824     0.06800
C1124       C  0.28522765  0.99310002  0.76810819    -0.03300
Br1125     Br  0.23827621  0.99923622  0.78914665    -0.01800
Br1126     Br  0.22707466  0.98022021  0.71719830    -0.01900
Br1127     Br  0.40350105  0.98478956  0.78847238    -0.01900
Br1128     Br  0.40196603  0.98486431  0.71397956    -0.01900
C1129       C  0.32096861  0.99568407  0.51868912    -0.03000
C1130       C  0.34695919  0.97818166  0.53186101     0.06700
C1131       C  0.37903722  0.97330750  0.51457711    -0.03100
C1132       C  0.38532337  0.98621647  0.98400686    -0.03100
C1133       C  0.36291304  0.00847320  0.97156529     0.06800
C1134       C  0.32915450  0.01123886  0.98874633    -0.03300
Br1135     Br  0.28952776  0.03024439  0.97019097    -0.01800
Br1136     Br  0.27276709  0.99652904  0.54151544    -0.01900
Br1137     Br  0.42123357  0.96906079  0.95931091    -0.01900
Br1138     Br  0.41390173  0.94853773  0.53298148    -0.01900
C1139       C  0.10185058  0.52183699  0.80412720    -0.03000
C1140       C  0.06211072  0.48146210  0.79717183     0.06700
C1141       C  0.02187034  0.48273947  0.79054384    -0.03100
C1142       C  0.02181872  0.52414833  0.78938791    -0.03100
C1143       C  0.06190781  0.56526834  0.79620625     0.06800
C1144       C  0.10184343  0.56334097  0.80400845    -0.03300
Br1145     Br  0.15686467  0.61643817  0.81639375    -0.01800
Br1146     Br  0.15590782  0.51977598  0.81598950    -0.01900
Br1147     Br  0.96604559  0.52271611  0.77697016    -0.01900
Br1148     Br  0.96627698  0.42751638  0.78223953    -0.01900
C1149       C  0.21602611  0.32451923  0.70004152    -0.03000
C1150       C  0.21973389  0.28626262  0.70811987     0.06700
C1151       C  0.18325484  0.25187171  0.72427284    -0.03100
C1152       C  0.15273156  0.26129086  0.74027542    -0.03100
C1153       C  0.15388000  0.30321485  0.73654454     0.06800
C1154       C  0.18257662  0.33238032  0.71358922    -0.03300
Br1155     Br  0.17561282  0.38237159  0.69940561    -0.01800
Br1156     Br  0.25467579  0.36524554  0.66917356    -0.01900
Br1157     Br  0.11279979  0.21692648  0.76884662    -0.01900
Br1158     Br  0.17291243  0.19089392  0.72277322    -0.01900
C1159       C  0.00754750  0.34945984  0.94046974    -0.03000
C1160       C  0.02685025  0.32938168  0.95870629     0.06700
C1161       C  0.05524603  0.31501109  0.94555153    -0.03100
C1162       C  0.06000333  0.31485338  0.91408106    -0.03100
C1163       C  0.03619421  0.33011548  0.89486058     0.06800
C1164       C  0.01204780  0.34993625  0.90872520    -0.03300
Br1165     Br  0.98491030  0.37878718  0.88548662    -0.01800
Br1166     Br  0.97117345  0.37243911  0.95887861    -0.01900
Br1167     Br  0.09980127  0.29286392  0.89935820    -0.01900
Br1168     Br  0.08945045  0.29712412  0.97135833    -0.01900
C1169       C  0.00113372  0.37425718  0.68872050    -0.03000
C1170       C  0.01248666  0.34513560  0.70441233     0.06700
C1171       C  0.00960312  0.30714810  0.68971639    -0.03100
C1172       C  0.99651246  0.29889070  0.65924069    -0.03100
C1173       C  0.98515503  0.32797563  0.64353864     0.06800
C1174       C  0.98647340  0.36511207  0.65844916    -0.03300
Br1175     Br  0.97132036  0.40510738  0.63670581    -0.01800
Br1176     Br  0.01023630  0.42895594  0.70759868    -0.01900
Br1177     Br  0.99484021  0.24806803  0.63873649    -0.01900
Br1178     Br  0.02489381  0.26702888  0.71118629    -0.01900
C1179       C  0.93704047  0.17645319  0.83292397    -0.03000
C1180       C  0.93927781  0.20237016  0.80724592     0.06700
C1181       C  0.89882183  0.18974225  0.79079311    -0.03100
C1182       C  0.85641468  0.15594113  0.80176160    -0.03100
C1183       C  0.85350164  0.13367482  0.82944421     0.06800
C1184       C  0.89465882  0.14272901  0.84402001    -0.03300
Br1185     Br  0.89420391  0.11316994  0.88141697    -0.01800
Br1186     Br  0.99137494  0.18899584  0.85522569    -0.01900
Br1187     Br  0.80238119  0.14097803  0.77841181    -0.01900
Br1188     Br  0.90137476  0.21878328  0.75278921    -0.01900
C1189       C  0.51365658  0.51995033  0.96589132    -0.03000
C1190       C  0.51509760  0.56098585  0.95776616     0.06700
C1191       C  0.47329707  0.56079441  0.95320716    -0.03100
C1192       C  0.43159354  0.52016092  0.95498170    -0.03100
C1193       C  0.43087585  0.47901615  0.96044002     0.06800
C1194       C  0.47217107  0.47931605  0.96626756    -0.03300
Br1195     Br  0.47250862  0.42418664  0.97640830    -0.01800
Br1196     Br  0.56752927  0.51836610  0.97928337    -0.01900
Br1197     Br  0.37527158  0.52081042  0.94863053    -0.01900
Br1198     Br  0.47155189  0.61532253  0.94380295    -0.01900
C1199       C  0.16920811  0.31222968  0.54525059    -0.03000
C1200       C  0.16824685  0.28731007  0.01941403     0.06700
C1201       C  0.12877938  0.24497155  0.01457994    -0.03100
C1202       C  0.08805477  0.23478148  0.02980850    -0.03100
C1203       C  0.08712299  0.26688999  0.54957111     0.06800
C1204       C  0.12860944  0.30193174  0.56020190    -0.03300
Br1205     Br  0.12881256  0.33613921  0.59494728    -0.01800
Br1206     Br  0.22563812  0.35925012  0.56125962    -0.01900
Br1207     Br  0.03334597  0.17914808  0.02117883    -0.01900
Br1208     Br  0.12790937  0.20200792  0.98575484    -0.01900
C1209       C  0.23238293  0.40910357  0.84896131    -0.03000
C1210       C  0.19107996  0.40962287  0.85002904     0.06700
C1211       C  0.17576461  0.41673164  0.87798304    -0.03100
C1212       C  0.19567600  0.41272777  0.90507365    -0.03100
C1213       C  0.23387448  0.40651911  0.90400829     0.06800
C1214       C  0.25506969  0.41039778  0.87598434    -0.03300
Br1215     Br  0.31526582  0.41851544  0.87471831    -0.01800
Br1216     Br  0.25630118  0.40430918  0.81052357    -0.01900
Br1217     Br  0.17046101  0.41462713  0.94350429    -0.01900
Br1218     Br  0.12695572  0.43050324  0.87892773    -0.01900
C1219       C  0.39018767  0.38342471  0.56853834    -0.03000
C1220       C  0.34975553  0.35169979  0.55433437     0.06700
C1221       C  0.31901661  0.31240744  0.56968084    -0.03100
C1222       C  0.32872455  0.30480632  0.59922970    -0.03100
C1223       C  0.36961179  0.33605380  0.61322760     0.06800
C1224       C  0.40067826  0.37501213  0.59774281    -0.03300
Br1225     Br  0.45829204  0.41555007  0.61602526    -0.01800
Br1226     Br  0.42944860  0.43959788  0.54887053    -0.01900
Br1227     Br  0.28533273  0.25219254  0.62088225    -0.01900
Br1228     Br  0.26366796  0.26883927  0.55010358    -0.01900
C1229       C  0.36162635  0.35241556  0.85059208    -0.03000
C1230       C  0.32087735  0.32052601  0.86459764     0.06700
C1231       C  0.28524653  0.28813942  0.84671505    -0.03100
C1232       C  0.28972786  0.28806531  0.81541282    -0.03100
C1233       C  0.33055195  0.31870994  0.80145471     0.06800
C1234       C  0.36590834  0.35224621  0.81887400    -0.03300
Br1235     Br  0.41944707  0.39840407  0.79937818    -0.01800
Br1236     Br  0.41136411  0.39676823  0.87440646    -0.01900
Br1237     Br  0.23823860  0.24717929  0.79137559    -0.01900
Br1238     Br  0.23079766  0.24095316  0.86473676    -0.01900
C1239       C  0.31968898  0.19514120  0.96711853    -0.03000
C1240       C  0.28499914  0.20240180  0.95491398     0.06700
C1241       C  0.25377550  0.16984431  0.93443860    -0.03100
C1242       C  0.26469237  0.13955762  0.91996939    -0.03100
C1243       C  0.30296090  0.13627596  0.92936620     0.06800
C1244       C  0.32779570  0.16145639  0.95492908    -0.03300
Br1245     Br  0.37351133  0.15057948  0.97344739    -0.01800
Br1246     Br  0.35647237  0.23028036  0.00090232    -0.01900
Br1247     Br  0.22992829  0.10772838  0.88473849    -0.01900
Br1248     Br  0.19475992  0.16410932  0.92711318    -0.01900
loop_ 
_geom_bond_atom_site_label_1 
_geom_bond_atom_site_label_2 
_geom_bond_distance 
_geom_bond_site_symmetry_2 
_ccdc_geom_bond_type 
O1           C16   1.263       .  A
O1           Al9   1.876       .  S
C2           O12   1.262       .  A
C2            O3   1.268       .  A
C2          C596   1.467       .  S
O3         Al629   1.926   1_554  S
O4            C6   1.259       .  A
O4           Al5   1.900       .  S
Al5          O13   1.898       .  S
Al5          O15   1.937       .  S
Al5         O627   1.926       .  S
Al5          O14   1.777       .  S
C6           O19   1.253       .  A
C6          C616   1.504       .  S
O7           C17   1.261       .  A
O7           Al9   1.908       .  S
O8           C21   1.264       .  A
O8          Al18   1.926       .  S
Al9          O22   1.934       .  S
Al9          O19   1.909       .  S
Al9          O14   1.775       .  S
O10          C17   1.271       .  A
O10         Al18   1.950       .  S
O11          C20   1.260       .  A
O11         Al18   1.922       .  S
O12        Al642   1.883   1_554  S
O13          C20   1.257       .  A
O14         Al18   1.782       .  S
O15          C16   1.269       .  A
C16         C606   1.481       .  S
C17         C576   1.505       .  S
Al18        O636   1.882       .  S
C20         C569   1.491       .  S
C21          O22   1.266       .  A
C21         C589   1.486       .  S
O23          C38   1.258       .  A
O23         Al31   1.877       .  S
C24          O34   1.269       .  A
C24          O25   1.278       .  A
C24         C546   1.472       .  S
O25         Al27   1.946       .  S
O26          C28   1.253       .  A
O26         Al27   1.892   1_655  S
Al27         O35   1.898       .  S
Al27         O37   1.931       .  S
Al27         O36   1.783       .  S
C28          O41   1.258   1_655  A
C28         C556   1.508       .  S
O29          C39   1.265       .  A
O29         Al31   1.925       .  S
O30          C43   1.268       .  A
O30         Al40   1.921       .  S
Al31         O44   1.929       .  S
Al31         O41   1.919       .  S
Al31         O36   1.778       .  S
O32          C39   1.262       .  A
O32         Al40   1.939       .  S
O33          C42   1.252       .  A
O33         Al40   1.908       .  S
O34         Al40   1.884       .  S
O35          C42   1.250       .  A
O36         Al40   1.789       .  S
O37          C38   1.269       .  A
C38         C539   1.509       .  S
C39         C529   1.512       .  S
C42         C516   1.491       .  S
C43          O44   1.268       .  A
C43         C586   1.479       .  S
O45          C60   1.257       .  A
O45         Al53   1.860       .  S
C46          O56   1.273       .  A
C46          O47   1.271       .  A
C46         C509   1.486       .  S
O47         Al49   1.927       .  S
O48          C50   1.258       .  A
O48         Al49   1.904   1_565  S
Al49         O57   1.926       .  S
Al49         O59   1.914   1_545  S
Al49         O58   1.785       .  S
C50          O63   1.262       .  A
C50         C486   1.517       .  S
O51          C61   1.262       .  A
O51         Al53   1.921       .  S
O52          C65   1.269       .  A
O52         Al62   1.927       .  S
Al53         O66   1.940       .  S
Al53         O63   1.920   1_545  S
Al53         O58   1.775       .  S
O54          C61   1.256       .  A
O54         Al62   1.911       .  S
O55          C64   1.249       .  A
O55         Al62   1.886       .  S
O56         Al62   1.908       .  S
O57          C64   1.259       .  A
O58         Al62   1.787       .  S
O59          C60   1.263   1_565  A
C60         C499   1.476   1_545  S
C61         C619   1.493       .  S
C64         C466   1.485       .  S
C65          O66   1.272       .  A
C65         C476   1.488       .  S
O67          C82   1.261       .  A
O67         Al75   1.876       .  S
C68          O78   1.265       .  A
C68          O69   1.270       .  A
C68         C599   1.467       .  S
O69         Al71   1.927       .  S
O70          C72   1.258       .  A
O70         Al71   1.906       .  S
Al71         O79   1.899       .  S
Al71         O81   1.929       .  S
Al71         O80   1.783       .  S
C72          O85   1.256       .  A
C72         C526   1.510       .  S
O73          C83   1.265       .  A
O73         Al75   1.926       .  S
O74          C87   1.268       .  A
O74         Al84   1.925       .  S
Al75         O88   1.917       .  S
Al75         O85   1.910       .  S
Al75         O80   1.775       .  S
O76          C83   1.268       .  A
O76         Al84   1.949       .  S
O77          C86   1.259       .  A
O77         Al84   1.932       .  S
O78         Al84   1.887       .  S
O79          C86   1.254       .  A
O80         Al84   1.787       .  S
O81          C82   1.266       .  A
C82         C609   1.474       .  S
C83         C459   1.512       .  S
C86         C449   1.496       .  S
C87          O88   1.266       .  A
C87         C479   1.476       .  S
O89         C104   1.269       .  A
O89        Al721   1.913   1_554  S
C90         O100   1.271       .  A
C90          O91   1.265       .  A
C90         C396   1.469       .  S
O91         Al93   1.880       .  S
O92          C94   1.261       .  A
O92         Al93   1.924       .  S
Al93        O101   1.918       .  S
Al93        O727   1.916       .  S
Al93        O102   1.787       .  S
C94         O107   1.255       .  A
C94         C436   1.492       .  S
O95         C105   1.257       .  A
O95         Al97   1.895       .  S
O96         C109   1.261       .  A
O96        Al106   1.913       .  S
Al97        O107   1.908       .  S
Al97        O713   1.913       .  S
Al97        O734   1.879       .  S
Al97        O102   1.769       .  S
O98         C105   1.263       .  A
O98        Al106   1.918       .  S
O99         C108   1.258       .  A
O99        Al106   1.918       .  S
O100       Al106   1.936       .  S
O101        C108   1.258       .  A
O102       Al106   1.786       .  S
O103        C104   1.267   1_556  A
O103       Al717   1.916       .  S
C104        C406   1.477       .  S
C105        C416   1.508       .  S
C108        C566   1.505       .  S
C109        O734   1.256       .  A
C109       C1050   1.472       .  S
O110        C733   1.256   1_554  A
O110       Al721   1.879   1_554  S
O111        C126   1.277   1_655  A
O111       Al743   1.937       .  S
C112        O122   1.277       .  A
C112        O113   1.269   1_655  A
C112        C549   1.471       .  S
O113       Al115   1.880       .  S
O114        C116   1.255       .  A
O114       Al115   1.906       .  S
Al115       O123   1.915   1_455  S
Al115       O749   1.905       .  S
Al115       O124   1.788   1_455  S
C116        O129   1.251       .  A
C116        C579   1.490       .  S
O117        C127   1.258       .  A
O117       Al119   1.904       .  S
O118        C131   1.263       .  A
O118       Al128   1.927       .  S
Al119       O132   1.875       .  S
Al119       O129   1.910   1_655  S
Al119       O735   1.937   1_554  S
Al119       O124   1.780       .  S
O120        C127   1.259       .  A
O120       Al128   1.904       .  S
O121        C130   1.253       .  A
O121       Al128   1.914       .  S
O122       Al128   1.949       .  S
O123        C130   1.253       .  A
O124       Al128   1.785       .  S
O125        C126   1.271       .  A
O125       Al739   1.905       .  S
C126        C536   1.484       .  S
C127        C386   1.511       .  S
C130        C366   1.502       .  S
C131        O132   1.254       .  A
C131       C1003   1.495   1_554  S
O133        C148   1.266       .  A
O133       Al141   1.919       .  S
C134        O144   1.276       .  A
C134        O135   1.274   1_545  A
C134        C346   1.475   1_545  S
O135       Al137   1.912       .  S
O136        C138   1.251       .  A
O136       Al137   1.897       .  S
Al137       O145   1.871   1_565  S
Al137       O147   1.907   1_565  S
Al137       O146   1.798   1_565  S
C138        O151   1.252       .  A
C138        C419   1.485       .  S
O139        C149   1.256       .  A
O139       Al141   1.921       .  S
O140        C153   1.265       .  A
O140       Al150   1.921       .  S
Al141       O154   1.885       .  S
Al141       O151   1.900   1_545  S
Al141       O146   1.789       .  S
O142        C149   1.254       .  A
O142       Al150   1.909       .  S
O143        C152   1.244       .  A
O143       Al150   1.886       .  S
O144       Al150   1.916       .  S
O145        C152   1.242       .  A
O146       Al150   1.802       .  S
O147        C148   1.264       .  A
C148        C359   1.506       .  S
C149        C559   1.512       .  S
C152        C469   1.477       .  S
C153        O154   1.263       .  A
C153        C376   1.470       .  S
O155        C170   1.274       .  A
O155       Al163   1.930       .  S
C156        O166   1.276       .  A
C156        O157   1.270       .  A
C156        C349   1.475       .  S
O157       Al159   1.887       .  S
O158        C160   1.256       .  A
O158       Al159   1.922   1_545  S
Al159       O167   1.911       .  S
Al159       O169   1.913       .  S
Al159       O168   1.789       .  S
C160        O173   1.250   1_545  A
C160        C389   1.493       .  S
O161        C171   1.257       .  A
O161       Al163   1.889       .  S
O162        C175   1.263       .  A
O162       Al172   1.918       .  S
Al163       O176   1.869       .  S
Al163       O173   1.902       .  S
Al163       O168   1.774       .  S
O164        C171   1.259       .  A
O164       Al172   1.904       .  S
O165        C174   1.255       .  A
O165       Al172   1.919       .  S
O166       Al172   1.945       .  S
O167        C174   1.254       .  A
O168       Al172   1.786       .  S
O169        C170   1.269       .  A
C170        C356   1.479   1_565  S
C171        C336   1.493       .  S
C174        C326   1.497       .  S
C175        O176   1.254       .  A
C175        C429   1.484       .  S
O177        C192   1.274       .  A
O177       Al185   1.917       .  S
C178        O188   1.275       .  A
C178        O179   1.265       .  A
C178        C296   1.465       .  S
O179       Al181   1.878       .  S
O180        C182   1.252       .  A
O180       Al181   1.889   1_655  S
Al181       O189   1.906       .  S
Al181       O191   1.907       .  S
Al181       O190   1.793       .  S
C182        O195   1.258   1_655  A
C182        C319   1.492       .  S
O183        C193   1.262       .  A
O183       Al185   1.929       .  S
O184        C197   1.263       .  A
O184       Al194   1.930       .  S
Al185       O198   1.878       .  S
Al185       O195   1.929       .  S
Al185       O190   1.782       .  S
O186        C193   1.258       .  A
O186       Al194   1.901       .  S
O187        C196   1.255       .  A
O187       Al194   1.920       .  S
O188       Al194   1.944       .  S
O189        C196   1.251       .  A
O190       Al194   1.785       .  S
O191        C192   1.270       .  A
C192        C306   1.489   1_455  S
C193        C489   1.523       .  S
C196        C519   1.508       .  S
C197        O198   1.255       .  A
C197        C286   1.483       .  S
O199        C214   1.257       .  A
O199       Al207   1.863       .  S
C200        O210   1.267       .  A
C200        O201   1.272       .  A
C200        C506   1.468       .  S
O201       Al203   1.931       .  S
O202        C204   1.255       .  A
O202       Al203   1.893   1_545  S
Al203       O211   1.900       .  S
Al203       O213   1.923       .  S
Al203       O212   1.780       .  S
C204        O217   1.261   1_545  A
C204        C456   1.517       .  S
O205        C215   1.266       .  A
O205       Al207   1.925       .  S
O206        C219   1.266       .  A
O206       Al216   1.916       .  S
Al207       O220   1.922       .  S
Al207       O217   1.933       .  S
Al207       O212   1.777       .  S
O208        C215   1.264       .  A
O208       Al216   1.931       .  S
O209        C218   1.253       .  A
O209       Al216   1.911       .  S
O210       Al216   1.887       .  S
O211        C218   1.253       .  A
O212       Al216   1.789       .  S
O213        C214   1.266       .  A
C214        C496   1.474       .  S
C215        C279   1.499       .  S
C218        C329   1.486       .  S
C219        O220   1.268       .  A
C219        C289   1.472       .  S
O221        C236   1.258       .  A
O221       Al229   1.868       .  S
C222        O232   1.265       .  A
C222        O223   1.273       .  A
C222        C399   1.472       .  S
O223       Al225   1.937       .  S
O224        C226   1.256       .  A
O224       Al225   1.901       .  S
Al225       O233   1.900       .  S
Al225       O235   1.938       .  S
Al225       O234   1.778       .  S
C226        O239   1.255       .  A
C226        C339   1.492       .  S
O227        C237   1.263       .  A
O227       Al229   1.912       .  S
O228        C241   1.268       .  A
O228       Al238   1.937       .  S
Al229       O242   1.926       .  S
Al229       O239   1.900       .  S
Al229       O234   1.772       .  S
O230        C237   1.271       .  A
O230       Al238   1.949       .  S
O231        C240   1.258       .  A
O231       Al238   1.928       .  S
O232       Al238   1.882       .  S
O233        C240   1.254       .  A
O234       Al238   1.779       .  S
O235        C236   1.269       .  A
C236        C409   1.499       .  S
C237        C316   1.503       .  S
C240        C446   1.505       .  S
C241        O242   1.264       .  A
C241        C269   1.486       .  S
O243        C258   1.258       .  A
O243       Al251   1.852       .  S
C244        O254   1.263       .  A
C244        O245   1.272   1_655  A
C244        C299   1.466       .  S
O245       Al871   1.933       .  S
O246        C248   1.254       .  A
O246       Al247   1.900       .  S
Al247       O255   1.903   1_455  S
Al247       O257   1.952       .  S
Al247       O869   1.933       .  S
Al247       O256   1.779   1_455  S
C248        O261   1.259   1_455  A
C248        C276   1.512       .  S
O249        C259   1.261       .  A
O249       Al251   1.902       .  S
O250        C263   1.267       .  A
O250       Al260   1.935       .  S
Al251       O264   1.942       .  S
Al251       O261   1.923       .  S
Al251       O256   1.767       .  S
O252        C259   1.271       .  A
O252       Al260   1.952       .  S
O253        C262   1.258       .  A
O253       Al260   1.919       .  S
O254       Al884   1.879       .  S
O255        C262   1.257       .  A
O256       Al260   1.783       .  S
O257        C258   1.272   1_455  A
C258        C309   1.481       .  S
C259        C439   1.497   1_554  S
Al260       O878   1.879   1_554  S
C262        C369   1.493       .  S
C263        O264   1.268       .  A
C263        C266   1.492       .  S
C265        C266   1.408       .  A
C265        C270   1.410       .  A
C265       Br272   1.913       .  S
C266        C267   1.406       .  A
C267        C268   1.416       .  A
C267       Br274   1.921       .  S
C268        C269   1.413       .  A
C268       Br273   1.922       .  S
C269        C270   1.407       .  A
C270       Br271   1.928       .  S
C275        C276   1.417       .  A
C275        C280   1.410       .  A
C275       Br282   1.929       .  S
C276        C277   1.421       .  A
C277        C278   1.417       .  A
C277       Br284   1.935       .  S
C278        C279   1.417       .  A
C278       Br283   1.934       .  S
C279        C280   1.413       .  A
C280       Br281   1.931       .  S
C285        C286   1.406       .  A
C285        C290   1.412       .  A
C285       Br292   1.927       .  S
C286        C287   1.409       .  A
C287        C288   1.403       .  A
C287       Br294   1.902       .  S
C288        C289   1.399       .  A
C288       Br293   1.933       .  S
C289        C290   1.411       .  A
C290       Br291   1.914       .  S
C295        C296   1.407       .  A
C295        C300   1.406       .  A
C295       Br302   1.931       .  S
C296        C297   1.408       .  A
C297        C298   1.406   1_455  A
C297       Br304   1.929   1_455  S
C298        C299   1.406       .  A
C298       Br303   1.928       .  S
C299        C300   1.410   1_655  A
C300       Br301   1.931       .  S
C305        C306   1.409       .  A
C305        C310   1.395       .  A
C305       Br312   1.927       .  S
C306        C307   1.417   1_655  A
C307        C308   1.415       .  A
C307       Br314   1.931       .  S
C308        C309   1.414   1_455  A
C308       Br313   1.932       .  S
C309        C310   1.414       .  A
C310       Br311   1.938       .  S
C315        C316   1.416       .  A
C315        C320   1.407       .  A
C315       Br322   1.932       .  S
C316        C317   1.423       .  A
C317        C318   1.418       .  A
C317       Br324   1.932       .  S
C318        C319   1.410       .  A
C318       Br323   1.931       .  S
C319        C320   1.409       .  A
C320       Br321   1.931       .  S
C325        C326   1.418       .  A
C325        C330   1.407       .  A
C325       Br332   1.932   1_565  S
C326        C327   1.419       .  A
C327        C328   1.417       .  A
C327       Br334   1.931       .  S
C328        C329   1.412       .  A
C328       Br333   1.931       .  S
C329        C330   1.409       .  A
C330       Br331   1.934   1_565  S
C335        C336   1.419       .  A
C335        C340   1.408       .  A
C335       Br342   1.942       .  S
C336        C337   1.416       .  A
C337        C338   1.414       .  A
C337       Br344   1.931       .  S
C338        C339   1.412       .  A
C338       Br343   1.931       .  S
C339        C340   1.418       .  A
C340       Br341   1.938       .  S
C345        C346   1.410       .  A
C345        C350   1.409       .  A
C345       Br352   1.929       .  S
C346        C347   1.408       .  A
C347        C348   1.407       .  A
C347       Br354   1.930   1_565  S
C348        C349   1.410       .  A
C348       Br353   1.932       .  S
C349        C350   1.410       .  A
C350       Br351   1.930       .  S
C355        C356   1.405   1_565  A
C355        C984   1.417   1_554  A
C355       Br362   1.934       .  S
C356        C357   1.398       .  A
C357        C982   1.404   1_554  A
C357       Br364   1.930       .  S
C358        C359   1.426       .  A
C358        C981   1.404       .  A
C358       Br363   1.933       .  S
C359        C360   1.429   1_545  A
C360        C979   1.417       .  A
C360       Br361   1.935       .  S
C365        C366   1.420       .  A
C365        C370   1.412       .  A
C365       Br372   1.937   1_655  S
C366        C367   1.420       .  A
C367        C368   1.414       .  A
C367       Br374   1.933       .  S
C368        C369   1.411       .  A
C368       Br373   1.932       .  S
C369        C370   1.413       .  A
C370       Br371   1.934   1_655  S
C375        C376   1.395       .  A
C375        C380   1.399       .  A
C375       Br382   1.934       .  S
C376        C377   1.408       .  A
C377        C378   1.417       .  A
C377       Br384   1.924       .  S
C378        C379   1.418       .  A
C378      Br1007   1.929       .  S
C379        C755   1.495       .  S
C379        C380   1.422       .  A
C380       Br381   1.919       .  S
Br383      C1002   1.929   1_554  S
C385        C386   1.426       .  A
C385        C390   1.414       .  A
C385       Br392   1.937       .  S
C386        C387   1.424       .  A
C387        C388   1.412       .  A
C387       Br394   1.934       .  S
C388        C389   1.407       .  A
C388       Br393   1.933       .  S
C389        C390   1.414       .  A
C390       Br391   1.935       .  S
C395        C396   1.408       .  A
C395        C400   1.404       .  A
C395       Br402   1.934       .  S
C396        C397   1.408       .  A
C397        C398   1.408       .  A
C397       Br404   1.930       .  S
C398        C399   1.409       .  A
C398       Br403   1.929       .  S
C399        C400   1.410       .  A
C400       Br401   1.931       .  S
C405        C406   1.396       .  A
C405        C410   1.398       .  A
C405       Br412   1.916       .  S
C406        C407   1.402       .  A
C407        C408   1.415       .  A
C407       Br414   1.929       .  S
C408        C409   1.428       .  A
C408       Br413   1.932       .  S
C409        C410   1.427       .  A
C410       Br411   1.945       .  S
C415        C416   1.424       .  A
C415        C420   1.416       .  A
C415       Br422   1.932       .  S
C416        C417   1.429       .  A
C417        C418   1.409       .  A
C417       Br424   1.942       .  S
C418        C419   1.408       .  A
C418       Br423   1.936       .  S
C419        C420   1.407       .  A
C420       Br421   1.931       .  S
C425        C426   1.407       .  A
C425        C430   1.409       .  A
C425       Br432   1.920       .  S
C426        C733   1.472   1_554  S
C426        C427   1.403       .  A
C427        C428   1.402       .  A
C427      Br1058   1.933   1_554  S
C428        C429   1.417       .  A
C428       Br433   1.919       .  S
C429        C430   1.414       .  A
C430       Br431   1.933       .  S
Br434      C1051   1.933       .  S
C435        C436   1.407       .  A
C435        C440   1.410       .  A
C435       Br442   1.930       .  S
C436        C437   1.415       .  A
C437       C1062   1.414       .  A
C437      Br1068   1.932       .  S
C438        C439   1.421       .  A
C438       C1061   1.414       .  A
C438       Br443   1.935   1_556  S
C439       C1064   1.416       .  A
C440       C1063   1.416       .  A
C440       Br441   1.929       .  S
Br444      C1061   1.932       .  S
C445        C446   1.421       .  A
C445        C450   1.410       .  A
C445       Br452   1.936       .  S
C446        C447   1.421       .  A
C447        C448   1.418       .  A
C447       Br454   1.932       .  S
C448        C449   1.412       .  A
C448       Br453   1.931       .  S
C449        C450   1.414       .  A
C450       Br451   1.935       .  S
C455        C456   1.420       .  A
C455        C460   1.416       .  A
C455       Br462   1.935       .  S
C456        C457   1.419       .  A
C457        C458   1.420       .  A
C457       Br464   1.932       .  S
C458        C459   1.420       .  A
C458       Br463   1.931       .  S
C459        C460   1.417       .  A
C460       Br461   1.934       .  S
C465        C466   1.408       .  A
C465        C470   1.409       .  A
C465       Br472   1.916       .  S
C466        C467   1.413       .  A
C467        C468   1.406       .  A
C467       Br474   1.930       .  S
C468        C469   1.409       .  A
C468       Br473   1.929       .  S
C469        C470   1.409       .  A
C470       Br471   1.930       .  S
C475        C476   1.407       .  A
C475        C480   1.414       .  A
C475       Br482   1.925       .  S
C476        C477   1.411       .  A
C477        C478   1.405       .  A
C477       Br484   1.903       .  S
C478        C479   1.401       .  A
C478       Br483   1.933       .  S
C479        C480   1.410       .  A
C480       Br481   1.916       .  S
C485        C486   1.419       .  A
C485        C490   1.419       .  A
C485       Br492   1.937       .  S
C486        C487   1.417       .  A
C487        C488   1.419       .  A
C487       Br494   1.935       .  S
C488        C489   1.424       .  A
C488       Br493   1.934       .  S
C489        C490   1.427       .  A
C490       Br491   1.939       .  S
C495        C496   1.413       .  A
C495        C500   1.398       .  A
C495       Br502   1.935       .  S
C496        C497   1.412       .  A
C497        C498   1.408       .  A
C497       Br504   1.933       .  S
C498        C499   1.413       .  A
C498       Br503   1.930       .  S
C499        C500   1.414       .  A
C500       Br501   1.940       .  S
C505        C506   1.405       .  A
C505       C1134   1.406   1_564  A
C505       Br512   1.932       .  S
C506        C507   1.404       .  A
C507       C1132   1.409   1_554  A
C507       Br514   1.931       .  S
C508        C509   1.418   1_565  A
C508       C1131   1.409       .  A
C508       Br513   1.927       .  S
C509        C510   1.415       .  A
C510       C1129   1.406   1_545  A
C510       Br511   1.930       .  S
C515        C516   1.409       .  A
C515        C520   1.415       .  A
C515       Br522   1.932       .  S
C516        C517   1.411       .  A
C517        C518   1.413       .  A
C517       Br524   1.936   1_455  S
C518        C519   1.426       .  A
C518       Br523   1.938   1_455  S
C519        C520   1.424       .  A
C520       Br521   1.934       .  S
C525        C526   1.415       .  A
C525        C530   1.418       .  A
C525       Br532   1.936       .  S
C526        C527   1.415       .  A
C527        C528   1.414       .  A
C527       Br534   1.933       .  S
C528        C529   1.420       .  A
C528       Br533   1.932       .  S
C529        C530   1.425       .  A
C530       Br531   1.935       .  S
C535        C536   1.406       .  A
C535        C540   1.415       .  A
C535       Br542   1.933   1_455  S
C536        C537   1.401       .  A
C537        C538   1.405       .  A
C537       Br544   1.921       .  S
C538        C539   1.430       .  A
C538       Br543   1.946       .  S
C539        C540   1.429       .  A
C540       Br541   1.934   1_455  S
C545        C546   1.409       .  A
C545        C550   1.410   1_455  A
C545       Br552   1.926       .  S
C546        C547   1.409       .  A
C547        C548   1.405   1_455  A
C547       Br554   1.931       .  S
C548        C549   1.408       .  A
C548       Br553   1.932       .  S
C549        C550   1.409       .  A
C550       Br551   1.930       .  S
C555        C556   1.420       .  A
C555        C560   1.418       .  A
C555       Br562   1.936       .  S
C556        C557   1.415       .  A
C557        C558   1.418       .  A
C557       Br564   1.934       .  S
C558        C559   1.421       .  A
C558       Br563   1.934       .  S
C559        C560   1.421       .  A
C560       Br561   1.936       .  S
C565        C566   1.422       .  A
C565        C570   1.410       .  A
C565       Br572   1.938       .  S
C566        C567   1.422       .  A
C567        C568   1.416       .  A
C567       Br574   1.933       .  S
C568        C569   1.411       .  A
C568       Br573   1.933       .  S
C569        C570   1.413       .  A
C570       Br571   1.937       .  S
C575        C580   1.407       .  A
C575       C1200   1.417       .  A
C575       Br582   1.927       .  S
C576        C577   1.423       .  A
C576       C1199   1.417       .  A
C577        C578   1.418       .  A
C577       Br584   1.933       .  S
C578       C1203   1.414       .  A
C578       Br583   1.931       .  S
C579        C580   1.405       .  A
C579       C1202   1.414       .  A
C580       Br581   1.930       .  S
C585        C586   1.405       .  A
C585        C590   1.408       .  A
C585       Br592   1.929       .  S
C586        C587   1.410       .  A
C587        C588   1.413       .  A
C587       Br594   1.923       .  S
C588        C589   1.407       .  A
C588       Br593   1.923       .  S
C589        C590   1.410       .  A
C590       Br591   1.915       .  S
C595        C596   1.408       .  A
C595        C600   1.407       .  A
C595       Br602   1.927       .  S
C596        C597   1.408       .  A
C597        C598   1.403       .  A
C597       Br604   1.932       .  S
C598        C599   1.409       .  A
C598       Br603   1.931       .  S
C599        C600   1.407       .  A
C600       Br601   1.928       .  S
C605        C606   1.417       .  A
C605        C610   1.414       .  A
C605       Br612   1.931       .  S
C606        C607   1.411       .  A
C607        C608   1.396       .  A
C607       Br614   1.931       .  S
C608        C609   1.406       .  A
C608       Br613   1.929       .  S
C609        C610   1.410       .  A
C610       Br611   1.930       .  S
C615        C616   1.416       .  A
C615        C620   1.412       .  A
C615       Br622   1.937       .  S
C616        C617   1.420       .  A
C617        C618   1.409       .  A
C617       Br624   1.932       .  S
C618        C619   1.412       .  A
C618       Br623   1.933       .  S
C619        C620   1.419       .  A
C620       Br621   1.935       .  S
O625        C640   1.263       .  A
O625       Al633   1.876       .  S
C626        O636   1.262       .  A
C626        O627   1.268       .  A
C626       C1220   1.467       .  S
O628        C630   1.259       .  A
O628       Al629   1.900       .  S
Al629       O637   1.898       .  S
Al629       O639   1.937       .  S
Al629       O638   1.777       .  S
C630        O643   1.253       .  A
C630       C1240   1.504       .  S
O631        C641   1.261       .  A
O631       Al633   1.908       .  S
O632        C645   1.264       .  A
O632       Al642   1.926       .  S
Al633       O646   1.934       .  S
Al633       O643   1.909       .  S
Al633       O638   1.775       .  S
O634        C641   1.271       .  A
O634       Al642   1.950       .  S
O635        C644   1.260       .  A
O635       Al642   1.923       .  S
O637        C644   1.257       .  A
O638       Al642   1.782       .  S
O639        C640   1.269       .  A
C640       C1230   1.481       .  S
C641       C1200   1.505   1_556  S
C644       C1193   1.491       .  S
C645        O646   1.266       .  A
C645       C1213   1.486       .  S
O647        C662   1.258       .  A
O647       Al655   1.877       .  S
C648        O658   1.269       .  A
C648        O649   1.278       .  A
C648       C1170   1.472       .  S
O649       Al651   1.946       .  S
O650        C652   1.253       .  A
O650       Al651   1.891   1_655  S
Al651       O659   1.898       .  S
Al651       O661   1.931       .  S
Al651       O660   1.783       .  S
C652        O665   1.258   1_655  A
C652       C1180   1.508       .  S
O653        C663   1.265       .  A
O653       Al655   1.925       .  S
O654        C667   1.268       .  A
O654       Al664   1.921       .  S
Al655       O668   1.929       .  S
Al655       O665   1.919       .  S
Al655       O660   1.778       .  S
O656        C663   1.262       .  A
O656       Al664   1.939       .  S
O657        C666   1.252       .  A
O657       Al664   1.908       .  S
O658       Al664   1.884       .  S
O659        C666   1.250       .  A
O660       Al664   1.789       .  S
O661        C662   1.269       .  A
C662       C1163   1.509       .  S
C663       C1153   1.512       .  S
C666       C1140   1.491       .  S
C667        O668   1.268       .  A
C667       C1210   1.479       .  S
O669        C684   1.257       .  A
O669       Al677   1.860       .  S
C670        O680   1.273       .  A
C670        O671   1.271       .  A
C670       C1133   1.486       .  S
O671       Al673   1.927       .  S
O672        C674   1.257       .  A
O672       Al673   1.904   1_565  S
Al673       O681   1.926       .  S
Al673       O683   1.914   1_545  S
Al673       O682   1.785       .  S
C674        O687   1.262       .  A
C674       C1110   1.517       .  S
O675        C685   1.262       .  A
O675       Al677   1.921       .  S
O676        C689   1.269       .  A
O676       Al686   1.927       .  S
Al677       O690   1.940       .  S
Al677       O687   1.920   1_545  S
Al677       O682   1.775       .  S
O678        C685   1.256       .  A
O678       Al686   1.911       .  S
O679        C688   1.249       .  A
O679       Al686   1.887       .  S
O680       Al686   1.908       .  S
O681        C688   1.259       .  A
O682       Al686   1.787       .  S
O683        C684   1.263   1_565  A
C684       C1123   1.476   1_545  S
C685       C1243   1.493       .  S
C688       C1090   1.485       .  S
C689        O690   1.272       .  A
C689       C1100   1.488       .  S
O691        C706   1.261       .  A
O691       Al699   1.876       .  S
C692        O702   1.265       .  A
C692        O693   1.270       .  A
C692       C1223   1.467       .  S
O693       Al695   1.927       .  S
O694        C696   1.258       .  A
O694       Al695   1.906       .  S
Al695       O703   1.899       .  S
Al695       O705   1.929       .  S
Al695       O704   1.783       .  S
C696        O709   1.256       .  A
C696       C1150   1.510       .  S
O697        C707   1.265       .  A
O697       Al699   1.926       .  S
O698        C711   1.268       .  A
O698       Al708   1.925       .  S
Al699       O712   1.917       .  S
Al699       O709   1.910       .  S
Al699       O704   1.775       .  S
O700        C707   1.268       .  A
O700       Al708   1.949       .  S
O701        C710   1.259       .  A
O701       Al708   1.932       .  S
O702       Al708   1.887       .  S
O703        C710   1.254       .  A
O704       Al708   1.787       .  S
O705        C706   1.266       .  A
C706       C1233   1.474       .  S
C707       C1083   1.512       .  S
C710       C1073   1.496       .  S
C711        O712   1.266       .  A
C711       C1103   1.476       .  S
O713        C728   1.269       .  A
C714        O724   1.271       .  A
C714        O715   1.265       .  A
C714       C1020   1.469       .  S
O715       Al717   1.880       .  S
O716        C718   1.261       .  A
O716       Al717   1.924       .  S
Al717       O725   1.918       .  S
Al717       O726   1.787       .  S
C718        O731   1.255       .  A
C718       C1060   1.492       .  S
O719        C729   1.257       .  A
O719       Al721   1.895       .  S
O720        C733   1.261       .  A
O720       Al730   1.913       .  S
Al721       O731   1.908       .  S
Al721       O726   1.769       .  S
O722        C729   1.263       .  A
O722       Al730   1.918       .  S
O723        C732   1.258       .  A
O723       Al730   1.918       .  S
O724       Al730   1.936       .  S
O725        C732   1.258       .  A
O726       Al730   1.786       .  S
O727        C728   1.267       .  A
C728       C1030   1.477       .  S
C729       C1040   1.508       .  S
C732       C1190   1.505       .  S
O735        C750   1.277   1_655  A
C736        O746   1.277       .  A
C736        O737   1.269   1_655  A
C736       C1173   1.471       .  S
O737       Al739   1.880       .  S
O738        C740   1.255       .  A
O738       Al739   1.906       .  S
Al739       O747   1.915   1_455  S
Al739       O748   1.788   1_455  S
C740        O753   1.251       .  A
C740       C1203   1.490       .  S
O741        C751   1.258       .  A
O741       Al743   1.904       .  S
O742        C755   1.263       .  A
O742       Al752   1.927       .  S
Al743       O756   1.875       .  S
Al743       O753   1.909   1_655  S
Al743       O748   1.780       .  S
O744        C751   1.259       .  A
O744       Al752   1.904       .  S
O745        C754   1.253       .  A
O745       Al752   1.914       .  S
O746       Al752   1.949       .  S
O747        C754   1.253       .  A
O748       Al752   1.785       .  S
O749        C750   1.271   1_554  A
C750       C1160   1.484       .  S
C751       C1010   1.511       .  S
C754        C990   1.502       .  S
C755        O756   1.254       .  A
O757        C772   1.266       .  A
O757       Al765   1.919       .  S
C758        O768   1.276       .  A
C758        O759   1.274   1_545  A
C758        C970   1.475   1_545  S
O759       Al761   1.912       .  S
O760        C762   1.251       .  A
O760       Al761   1.897       .  S
Al761       O769   1.871   1_565  S
Al761       O771   1.907   1_565  S
Al761       O770   1.798   1_565  S
C762        O775   1.252       .  A
C762       C1043   1.485       .  S
O763        C773   1.256       .  A
O763       Al765   1.921       .  S
O764        C777   1.265       .  A
O764       Al774   1.921       .  S
Al765       O778   1.885       .  S
Al765       O775   1.900   1_545  S
Al765       O770   1.789       .  S
O766        C773   1.254       .  A
O766       Al774   1.909       .  S
O767        C776   1.244       .  A
O767       Al774   1.886       .  S
O768       Al774   1.916       .  S
O769        C776   1.242       .  A
O770       Al774   1.802       .  S
O771        C772   1.264       .  A
C772        C983   1.506       .  S
C773       C1183   1.512       .  S
C776       C1093   1.477       .  S
C777        O778   1.263       .  A
C777       C1000   1.470       .  S
O779        C794   1.274       .  A
O779       Al787   1.930       .  S
C780        O790   1.276       .  A
C780        O781   1.270       .  A
C780        C973   1.475       .  S
O781       Al783   1.887       .  S
O782        C784   1.256       .  A
O782       Al783   1.922   1_545  S
Al783       O791   1.911       .  S
Al783       O793   1.913       .  S
Al783       O792   1.789       .  S
C784        O797   1.250   1_545  A
C784       C1013   1.493       .  S
O785        C795   1.257       .  A
O785       Al787   1.889       .  S
O786        C799   1.263       .  A
O786       Al796   1.918       .  S
Al787       O800   1.869       .  S
Al787       O797   1.902       .  S
Al787       O792   1.774       .  S
O788        C795   1.259       .  A
O788       Al796   1.904       .  S
O789        C798   1.255       .  A
O789       Al796   1.919       .  S
O790       Al796   1.945       .  S
O791        C798   1.254       .  A
O792       Al796   1.786       .  S
O793        C794   1.269       .  A
C794        C980   1.479   1_565  S
C795        C960   1.493       .  S
C798        C950   1.497       .  S
C799        O800   1.254       .  A
C799       C1053   1.484       .  S
O801        C816   1.274       .  A
O801       Al809   1.917       .  S
C802        O812   1.275       .  A
C802        O803   1.265       .  A
C802        C920   1.465       .  S
O803       Al805   1.878       .  S
O804        C806   1.252       .  A
O804       Al805   1.889   1_655  S
Al805       O813   1.906       .  S
Al805       O815   1.907       .  S
Al805       O814   1.793       .  S
C806        O819   1.258   1_655  A
C806        C943   1.492       .  S
O807        C817   1.262       .  A
O807       Al809   1.929       .  S
O808        C821   1.262       .  A
O808       Al818   1.930       .  S
Al809       O822   1.878       .  S
Al809       O819   1.929       .  S
Al809       O814   1.782       .  S
O810        C817   1.258       .  A
O810       Al818   1.901       .  S
O811        C820   1.255       .  A
O811       Al818   1.920       .  S
O812       Al818   1.944       .  S
O813        C820   1.251       .  A
O814       Al818   1.785       .  S
O815        C816   1.270       .  A
C816        C930   1.489   1_455  S
C817       C1113   1.523       .  S
C820       C1143   1.508       .  S
C821        O822   1.255       .  A
C821        C910   1.483       .  S
O823        C838   1.257       .  A
O823       Al831   1.863       .  S
C824        O834   1.267       .  A
C824        O825   1.272       .  A
C824       C1130   1.468       .  S
O825       Al827   1.931       .  S
O826        C828   1.255       .  A
O826       Al827   1.893   1_545  S
Al827       O835   1.900       .  S
Al827       O837   1.923       .  S
Al827       O836   1.780       .  S
C828        O841   1.261   1_545  A
C828       C1080   1.517       .  S
O829        C839   1.266       .  A
O829       Al831   1.925       .  S
O830        C843   1.266       .  A
O830       Al840   1.916       .  S
Al831       O844   1.922       .  S
Al831       O841   1.933       .  S
Al831       O836   1.777       .  S
O832        C839   1.264       .  A
O832       Al840   1.931       .  S
O833        C842   1.253       .  A
O833       Al840   1.911       .  S
O834       Al840   1.887       .  S
O835        C842   1.253       .  A
O836       Al840   1.789       .  S
O837        C838   1.266       .  A
C838       C1120   1.474       .  S
C839        C903   1.499       .  S
C842        C953   1.485       .  S
C843        O844   1.268       .  A
C843        C913   1.472       .  S
O845        C860   1.258       .  A
O845       Al853   1.868       .  S
C846        O856   1.265       .  A
C846        O847   1.273       .  A
C846       C1023   1.472       .  S
O847       Al849   1.937       .  S
O848        C850   1.256       .  A
O848       Al849   1.901       .  S
Al849       O857   1.900       .  S
Al849       O859   1.938       .  S
Al849       O858   1.778       .  S
C850        O863   1.255       .  A
C850        C963   1.492       .  S
O851        C861   1.263       .  A
O851       Al853   1.912       .  S
O852        C865   1.268       .  A
O852       Al862   1.937       .  S
Al853       O866   1.926       .  S
Al853       O863   1.900       .  S
Al853       O858   1.772       .  S
O854        C861   1.271       .  A
O854       Al862   1.949       .  S
O855        C864   1.258       .  A
O855       Al862   1.928       .  S
O856       Al862   1.882       .  S
O857        C864   1.254       .  A
O858       Al862   1.779       .  S
O859        C860   1.269       .  A
C860       C1033   1.498       .  S
C861        C940   1.503       .  S
C864       C1070   1.505       .  S
C865        O866   1.264       .  A
C865        C893   1.486       .  S
O867        C882   1.258       .  A
O867       Al875   1.851       .  S
C868        O878   1.263       .  A
C868        O869   1.272   1_656  A
C868        C923   1.466       .  S
O870        C872   1.254       .  A
O870       Al871   1.900       .  S
Al871       O879   1.903   1_455  S
Al871       O881   1.952       .  S
Al871       O880   1.779   1_455  S
C872        O885   1.259   1_455  A
C872        C900   1.512       .  S
O873        C883   1.261       .  A
O873       Al875   1.902       .  S
O874        C887   1.267       .  A
O874       Al884   1.935       .  S
Al875       O888   1.942       .  S
Al875       O885   1.923       .  S
Al875       O880   1.767       .  S
O876        C883   1.271       .  A
O876       Al884   1.952       .  S
O877        C886   1.258       .  A
O877       Al884   1.919       .  S
O879        C886   1.257       .  A
O880       Al884   1.783       .  S
O881        C882   1.272   1_455  A
C882        C933   1.481       .  S
C883       C1063   1.497       .  S
C886        C993   1.493       .  S
C887        O888   1.268       .  A
C887        C890   1.492       .  S
C889        C890   1.408       .  A
C889        C894   1.410       .  A
C889       Br896   1.913       .  S
C890        C891   1.406       .  A
C891        C892   1.416       .  A
C891       Br898   1.921       .  S
C892        C893   1.413       .  A
C892       Br897   1.922       .  S
C893        C894   1.407       .  A
C894       Br895   1.928       .  S
C899        C900   1.417       .  A
C899        C904   1.410       .  A
C899       Br906   1.929       .  S
C900        C901   1.421       .  A
C901        C902   1.417       .  A
C901       Br908   1.935       .  S
C902        C903   1.417       .  A
C902       Br907   1.934       .  S
C903        C904   1.413       .  A
C904       Br905   1.931       .  S
C909        C910   1.406       .  A
C909        C914   1.412       .  A
C909       Br916   1.927       .  S
C910        C911   1.409       .  A
C911        C912   1.403       .  A
C911       Br918   1.901       .  S
C912        C913   1.399       .  A
C912       Br917   1.933       .  S
C913        C914   1.411       .  A
C914       Br915   1.914       .  S
C919        C920   1.407       .  A
C919        C924   1.406       .  A
C919       Br926   1.931       .  S
C920        C921   1.408       .  A
C921        C922   1.406   1_455  A
C921       Br928   1.929   1_455  S
C922        C923   1.406       .  A
C922       Br927   1.928       .  S
C923        C924   1.410   1_655  A
C924       Br925   1.931       .  S
C929        C930   1.409       .  A
C929        C934   1.395       .  A
C929       Br936   1.927       .  S
C930        C931   1.417   1_655  A
C931        C932   1.415       .  A
C931       Br938   1.931       .  S
C932        C933   1.414   1_455  A
C932       Br937   1.932       .  S
C933        C934   1.414       .  A
C934       Br935   1.938       .  S
C939        C940   1.416       .  A
C939        C944   1.407       .  A
C939       Br946   1.932       .  S
C940        C941   1.423       .  A
C941        C942   1.418       .  A
C941       Br948   1.932       .  S
C942        C943   1.410       .  A
C942       Br947   1.931       .  S
C943        C944   1.409       .  A
C944       Br945   1.931       .  S
C949        C950   1.418       .  A
C949        C954   1.407       .  A
C949       Br956   1.932   1_565  S
C950        C951   1.419       .  A
C951        C952   1.417       .  A
C951       Br958   1.931       .  S
C952        C953   1.412       .  A
C952       Br957   1.931       .  S
C953        C954   1.409       .  A
C954       Br955   1.934   1_565  S
C959        C960   1.419       .  A
C959        C964   1.408       .  A
C959       Br966   1.942       .  S
C960        C961   1.416       .  A
C961        C962   1.414       .  A
C961       Br968   1.931       .  S
C962        C963   1.412       .  A
C962       Br967   1.931       .  S
C963        C964   1.418       .  A
C964       Br965   1.938       .  S
C969        C970   1.410       .  A
C969        C974   1.409       .  A
C969       Br976   1.929       .  S
C970        C971   1.408       .  A
C971        C972   1.407       .  A
C971       Br978   1.930   1_565  S
C972        C973   1.410       .  A
C972       Br977   1.932       .  S
C973        C974   1.410       .  A
C974       Br975   1.930       .  S
C979        C980   1.405   1_565  A
C979       Br986   1.934       .  S
C980        C981   1.398       .  A
C981       Br988   1.930       .  S
C982        C983   1.427       .  A
C982       Br987   1.933       .  S
C983        C984   1.429   1_545  A
C984       Br985   1.935       .  S
C989        C990   1.420       .  A
C989        C994   1.412       .  A
C989       Br996   1.937   1_655  S
C990        C991   1.420       .  A
C991        C992   1.414       .  A
C991       Br998   1.933       .  S
C992        C993   1.411       .  A
C992       Br997   1.932       .  S
C993        C994   1.413       .  A
C994       Br995   1.934   1_655  S
C999       C1000   1.395       .  A
C999       C1004   1.399       .  A
C999      Br1006   1.934       .  S
C1000      C1001   1.408       .  A
C1001      C1002   1.417       .  A
C1001     Br1008   1.924       .  S
C1002      C1003   1.418       .  A
C1003      C1004   1.422       .  A
C1004     Br1005   1.919       .  S
C1009      C1010   1.426       .  A
C1009      C1014   1.414       .  A
C1009     Br1016   1.937       .  S
C1010      C1011   1.424       .  A
C1011      C1012   1.412       .  A
C1011     Br1018   1.934       .  S
C1012      C1013   1.407       .  A
C1012     Br1017   1.933       .  S
C1013      C1014   1.414       .  A
C1014     Br1015   1.935       .  S
C1019      C1020   1.408       .  A
C1019      C1024   1.404       .  A
C1019     Br1026   1.934       .  S
C1020      C1021   1.408       .  A
C1021      C1022   1.408       .  A
C1021     Br1028   1.930       .  S
C1022      C1023   1.409       .  A
C1022     Br1027   1.929       .  S
C1023      C1024   1.410       .  A
C1024     Br1025   1.931       .  S
C1029      C1030   1.396       .  A
C1029      C1034   1.398       .  A
C1029     Br1036   1.916       .  S
C1030      C1031   1.402       .  A
C1031      C1032   1.415       .  A
C1031     Br1038   1.929       .  S
C1032      C1033   1.428       .  A
C1032     Br1037   1.932       .  S
C1033      C1034   1.427       .  A
C1034     Br1035   1.945       .  S
C1039      C1040   1.424       .  A
C1039      C1044   1.416       .  A
C1039     Br1046   1.932       .  S
C1040      C1041   1.429       .  A
C1041      C1042   1.409       .  A
C1041     Br1048   1.942       .  S
C1042      C1043   1.408       .  A
C1042     Br1047   1.936       .  S
C1043      C1044   1.407       .  A
C1044     Br1045   1.931       .  S
C1049      C1050   1.407       .  A
C1049      C1054   1.409       .  A
C1049     Br1056   1.920       .  S
C1050      C1051   1.403       .  A
C1051      C1052   1.402       .  A
C1052      C1053   1.417       .  A
C1052     Br1057   1.919       .  S
C1053      C1054   1.414       .  A
C1054     Br1055   1.933       .  S
C1059      C1060   1.407       .  A
C1059      C1064   1.410       .  A
C1059     Br1066   1.930       .  S
C1060      C1061   1.415       .  A
C1062      C1063   1.421       .  A
C1062     Br1067   1.935       .  S
C1064     Br1065   1.929       .  S
C1069      C1070   1.421       .  A
C1069      C1074   1.410       .  A
C1069     Br1076   1.936       .  S
C1070      C1071   1.421       .  A
C1071      C1072   1.418       .  A
C1071     Br1078   1.932       .  S
C1072      C1073   1.412       .  A
C1072     Br1077   1.931       .  S
C1073      C1074   1.414       .  A
C1074     Br1075   1.935       .  S
C1079      C1080   1.420       .  A
C1079      C1084   1.416       .  A
C1079     Br1086   1.935       .  S
C1080      C1081   1.419       .  A
C1081      C1082   1.420       .  A
C1081     Br1088   1.932       .  S
C1082      C1083   1.420       .  A
C1082     Br1087   1.931       .  S
C1083      C1084   1.417       .  A
C1084     Br1085   1.934       .  S
C1089      C1090   1.408       .  A
C1089      C1094   1.409       .  A
C1089     Br1096   1.916       .  S
C1090      C1091   1.413       .  A
C1091      C1092   1.406       .  A
C1091     Br1098   1.930       .  S
C1092      C1093   1.410       .  A
C1092     Br1097   1.929       .  S
C1093      C1094   1.409       .  A
C1094     Br1095   1.930       .  S
C1099      C1100   1.407       .  A
C1099      C1104   1.414       .  A
C1099     Br1106   1.925       .  S
C1100      C1101   1.411       .  A
C1101      C1102   1.405       .  A
C1101     Br1108   1.903       .  S
C1102      C1103   1.401       .  A
C1102     Br1107   1.933       .  S
C1103      C1104   1.410       .  A
C1104     Br1105   1.917       .  S
C1109      C1110   1.418       .  A
C1109      C1114   1.419       .  A
C1109     Br1116   1.937       .  S
C1110      C1111   1.417       .  A
C1111      C1112   1.419       .  A
C1111     Br1118   1.935       .  S
C1112      C1113   1.424       .  A
C1112     Br1117   1.934       .  S
C1113      C1114   1.427       .  A
C1114     Br1115   1.939       .  S
C1119      C1120   1.413       .  A
C1119      C1124   1.398       .  A
C1119     Br1126   1.935       .  S
C1120      C1121   1.412       .  A
C1121      C1122   1.408       .  A
C1121     Br1128   1.933       .  S
C1122      C1123   1.413       .  A
C1122     Br1127   1.930       .  S
C1123      C1124   1.414       .  A
C1124     Br1125   1.940       .  S
C1129      C1130   1.405       .  A
C1129     Br1136   1.932       .  S
C1130      C1131   1.404       .  A
C1131     Br1138   1.931       .  S
C1132      C1133   1.418   1_565  A
C1132     Br1137   1.927       .  S
C1133      C1134   1.415       .  A
C1134     Br1135   1.930       .  S
C1139      C1140   1.409       .  A
C1139      C1144   1.415       .  A
C1139     Br1146   1.932       .  S
C1140      C1141   1.411       .  A
C1141      C1142   1.413       .  A
C1141     Br1148   1.936   1_455  S
C1142      C1143   1.426       .  A
C1142     Br1147   1.938   1_455  S
C1143      C1144   1.424       .  A
C1144     Br1145   1.934       .  S
C1149      C1150   1.415       .  A
C1149      C1154   1.418       .  A
C1149     Br1156   1.936       .  S
C1150      C1151   1.415       .  A
C1151      C1152   1.414       .  A
C1151     Br1158   1.933       .  S
C1152      C1153   1.420       .  A
C1152     Br1157   1.932       .  S
C1153      C1154   1.425       .  A
C1154     Br1155   1.935       .  S
C1159      C1160   1.406       .  A
C1159      C1164   1.415       .  A
C1159     Br1166   1.933   1_455  S
C1160      C1161   1.401       .  A
C1161      C1162   1.405       .  A
C1161     Br1168   1.921       .  S
C1162      C1163   1.430       .  A
C1162     Br1167   1.946       .  S
C1163      C1164   1.429       .  A
C1164     Br1165   1.934   1_455  S
C1169      C1170   1.409       .  A
C1169      C1174   1.410   1_455  A
C1169     Br1176   1.926       .  S
C1170      C1171   1.409       .  A
C1171      C1172   1.405   1_455  A
C1171     Br1178   1.931       .  S
C1172      C1173   1.408       .  A
C1172     Br1177   1.932       .  S
C1173      C1174   1.409       .  A
C1174     Br1175   1.930       .  S
C1179      C1180   1.420       .  A
C1179      C1184   1.418       .  A
C1179     Br1186   1.936       .  S
C1180      C1181   1.415       .  A
C1181      C1182   1.418       .  A
C1181     Br1188   1.934       .  S
C1182      C1183   1.421       .  A
C1182     Br1187   1.934       .  S
C1183      C1184   1.421       .  A
C1184     Br1185   1.936       .  S
C1189      C1190   1.422       .  A
C1189      C1194   1.410       .  A
C1189     Br1196   1.938       .  S
C1190      C1191   1.422       .  A
C1191      C1192   1.416       .  A
C1191     Br1198   1.933       .  S
C1192      C1193   1.411       .  A
C1192     Br1197   1.933       .  S
C1193      C1194   1.413       .  A
C1194     Br1195   1.937       .  S
C1199      C1204   1.407       .  A
C1199     Br1206   1.927       .  S
C1200      C1201   1.423       .  A
C1201      C1202   1.418       .  A
C1201     Br1208   1.933   1_554  S
C1202     Br1207   1.931       .  S
C1203      C1204   1.405       .  A
C1204     Br1205   1.930       .  S
C1209      C1210   1.405       .  A
C1209      C1214   1.408       .  A
C1209     Br1216   1.929       .  S
C1210      C1211   1.410       .  A
C1211      C1212   1.413       .  A
C1211     Br1218   1.923       .  S
C1212      C1213   1.407       .  A
C1212     Br1217   1.923       .  S
C1213      C1214   1.410       .  A
C1214     Br1215   1.915       .  S
C1219      C1220   1.408       .  A
C1219      C1224   1.407       .  A
C1219     Br1226   1.927       .  S
C1220      C1221   1.408       .  A
C1221      C1222   1.403       .  A
C1221     Br1228   1.932       .  S
C1222      C1223   1.409       .  A
C1222     Br1227   1.931       .  S
C1223      C1224   1.407       .  A
C1224     Br1225   1.928       .  S
C1229      C1230   1.417       .  A
C1229      C1234   1.414       .  A
C1229     Br1236   1.931       .  S
C1230      C1231   1.411       .  A
C1231      C1232   1.396       .  A
C1231     Br1238   1.931       .  S
C1232      C1233   1.406       .  A
C1232     Br1237   1.929       .  S
C1233      C1234   1.410       .  A
C1234     Br1235   1.930       .  S
C1239      C1240   1.416       .  A
C1239      C1244   1.412       .  A
C1239     Br1246   1.937   1_556  S
C1240      C1241   1.420       .  A
C1241      C1242   1.409       .  A
C1241     Br1248   1.932       .  S
C1242      C1243   1.412       .  A
C1242     Br1247   1.933       .  S
C1243      C1244   1.419       .  A
C1244     Br1245   1.935       .  S
