geometry optimzed in LAMMPS
_audit_creation_date              2020-12-01 
_audit_creation_method            'lammps2cif' 
_symmetry_space_group_name_H-M    'P1' 
_symmetry_Int_Tables_number       1 
_symmetry_cell_setting            triclinic 
loop_ 
_symmetry_equiv_pos_as_xyz 
  x,y,z 
_cell_length_a                    49.95269053 
_cell_length_b                    50.02228486715587 
_cell_length_c                    30.077357774661206 
_cell_angle_alpha                 89.89769143022271 
_cell_angle_beta                  89.83197682197194 
_cell_angle_gamma                 89.96488003375394 
loop_ 
_atom_site_label 
_atom_site_type_symbol 
_atom_site_fract_x 
_atom_site_fract_y 
_atom_site_fract_z 
_atom_site_charge 
Fe1        Fe  0.71029277  0.47803321  0.71309779     1.65800
Fe2        Fe  0.64796625  0.45598221  0.74463567     1.73200
Fe3        Fe  0.68487530  0.42125350  0.66954366     1.54400
O4          O  0.70934813  0.44036376  0.62358919    -0.82300
O5          O  0.64698727  0.41682805  0.76611666    -0.80600
O6          O  0.71565534  0.48197441  0.64558908    -0.84800
O7          O  0.73878780  0.44736383  0.71747749    -0.79600
O8          O  0.65171987  0.43342417  0.63484058    -0.81400
O9          O  0.66831637  0.46512174  0.80290008    -0.84200
C10         C  0.73841501  0.42178088  0.71658417     0.96600
C11         C  0.71817840  0.46377224  0.61689268     1.04000
O12         O  0.68098985  0.45193725  0.70929876    -1.13100
O13         O  0.64445016  0.49573626  0.72871271    -0.75600
O14         O  0.68490516  0.51090827  0.70937352    -0.79100
O15         O  0.71816284  0.40851241  0.70354387    -0.79800
C16         C  0.66003254  0.51430727  0.71634352     0.95500
O17         O  0.70891507  0.47792504  0.78078285    -0.77700
O18         O  0.62410325  0.44683052  0.68944823    -0.82900
C19         C  0.64923311  0.39554456  0.74378627     0.98100
C20         C  0.62864878  0.44018941  0.64907005     1.04000
O21         O  0.66120559  0.39521311  0.70656928    -0.78500
C22         C  0.69202595  0.47289570  0.81110179     1.02300
Fe23       Fe  0.77344361  0.48140894  0.21623078     1.65800
Fe24       Fe  0.79644715  0.42180053  0.17403469     1.73200
Fe25       Fe  0.83683648  0.45907509  0.24087326     1.54400
O26         O  0.83906047  0.49857928  0.22299872    -0.82300
O27         O  0.81335818  0.39567169  0.21924455    -0.80600
O28         O  0.79891953  0.51332249  0.20216005    -0.84800
O29         O  0.77903257  0.48564575  0.28366894    -0.79600
O30         O  0.85910284  0.45082016  0.18407350    -0.81400
O31         O  0.75952873  0.41420439  0.20173316    -0.84200
C32         C  0.79634505  0.47856495  0.31211826     0.96600
C33         C  0.82394676  0.51658286  0.20729115     1.04000
O34         O  0.80217080  0.45404278  0.21046915    -1.13100
O35         O  0.77931422  0.44265913  0.12330682    -0.75600
O36         O  0.76323167  0.48090474  0.14978403    -0.79100
O37         O  0.81842619  0.46769958  0.30118043    -0.79800
C38         C  0.76695542  0.46449844  0.11834966     0.95500
O39         O  0.74468437  0.45266972  0.23041522    -0.77700
O40         O  0.83220677  0.42645673  0.14113768    -0.82900
C41         C  0.83066642  0.39768151  0.24980063     0.98100
C42         C  0.85430827  0.43806607  0.14846914     1.04000
O43         O  0.84015180  0.42001165  0.26177390    -0.78500
C44         C  0.74181157  0.42794829  0.22164387     1.02300
Fe45       Fe  0.98348681  0.20268657  0.35355531     1.65800
Fe46       Fe  0.96218835  0.14004176  0.32385890     1.73200
Fe47       Fe  0.92617496  0.17753651  0.39571487     1.54400
O48         O  0.94430312  0.20260351  0.44073074    -0.82300
O49         O  0.92340809  0.13947494  0.30000406    -0.80600
O50         O  0.98670138  0.20738092  0.42135762    -0.84800
O51         O  0.95277703  0.23130599  0.34971475    -0.79600
O52         O  0.93814288  0.14530711  0.43256661    -0.81400
O53         O  0.97285721  0.15992561  0.26541265    -0.84200
C54         C  0.92715575  0.23077411  0.34907466     0.96600
C55         C  0.96778241  0.21064238  0.44880835     1.04000
O56         O  0.95750406  0.17336688  0.35741165    -1.13100
O57         O  0.00162220  0.13632479  0.34269336    -0.75600
O58         O  0.01667272  0.17748152  0.35683260    -0.79100
O59         O  0.91376320  0.21010411  0.35983089    -0.79800
C60         C  0.02021850  0.15242582  0.35281511     0.95500
O61         O  0.98350494  0.20146176  0.28558712    -0.77700
O62         O  0.95150289  0.11679833  0.37948711    -0.82900
C63         C  0.90180371  0.14166301  0.32177936     0.98100
C64         C  0.94470028  0.12200240  0.41960511     1.04000
O65         O  0.90102971  0.15324680  0.35912038    -0.78500
C66         C  0.97969541  0.18381954  0.25606139     1.02300
Fe67       Fe  0.98630299  0.26494125  0.84848110     1.65800
Fe68       Fe  0.92921038  0.29153240  0.89373905     1.73200
Fe69       Fe  0.96760475  0.32970537  0.82421131     1.54400
O70         O  0.00814817  0.32896867  0.83613355    -0.82300
O71         O  0.90338794  0.30963866  0.84976188    -0.80600
O72         O  0.02013218  0.28825738  0.85902354    -0.84800
O73         O  0.98911479  0.27056701  0.78062438    -0.79600
O74         O  0.96273078  0.35222239  0.88157955    -0.81400
O75         O  0.91848799  0.25549006  0.86612607    -0.84200
C76         C  0.98219632  0.28829911  0.75263087     0.96600
C77         C  0.02545736  0.31250674  0.85017689     1.04000
O78         O  0.96110101  0.29539418  0.85555758    -1.13100
O79         O  0.94977463  0.27295396  0.94379346    -0.75600
O80         O  0.98670839  0.25486087  0.91538331    -0.79100
O81         O  0.97267444  0.31083339  0.76391645    -0.79800
C82         C  0.97095635  0.25930554  0.94770156     0.95500
O83         O  0.95557763  0.23780818  0.83700224    -0.77700
O84         O  0.93679689  0.32703344  0.92554080    -0.82900
C85         C  0.90563192  0.32702168  0.81937397     0.98100
C86         C  0.94978327  0.34830891  0.91746416     1.04000
O87         O  0.92815567  0.33600385  0.80700688    -0.78500
C88         C  0.93066819  0.23681291  0.84594174     1.02300
Fe89       Fe  0.70426504  0.99161237  0.21611845     1.65800
Fe90       Fe  0.67995613  0.05004363  0.17404575     1.73200
Fe91       Fe  0.64090018  0.01166061  0.24016893     1.54400
O92         O  0.64249011  0.97063362  0.23437267    -0.82300
O93         O  0.66669699  0.07535640  0.22365972    -0.80600
O94         O  0.67982529  0.95963017  0.19845928    -0.84800
O95         O  0.69644005  0.98585854  0.28339178    -0.79600
O96         O  0.61982975  0.01365396  0.18080170    -0.81400
O97         O  0.71882269  0.05665146  0.19524163    -0.84200
C98         C  0.68098383  0.99681451  0.31178885     0.96600
C99         C  0.65696260  0.95372036  0.21420832     1.04000
O100        O  0.67514973  0.01775984  0.20991043    -1.13100
O101        O  0.69341501  0.02838229  0.12053533    -0.75600
O102        O  0.71626714  0.99449967  0.15017418    -0.79100
O103        O  0.66013390  0.00981454  0.30068728    -0.79800
C104        C  0.70944715  0.00880543  0.11712661     0.95500
O105        O  0.73155360  0.02090328  0.23415926    -0.77700
O106        O  0.64165418  0.04761566  0.14862681    -0.82900
C107        C  0.64519858  0.07373196  0.24605656     0.98100
C108        C  0.62156880  0.03210046  0.15174061     1.04000
O109        O  0.63307882  0.05169471  0.25151452    -0.78500
C110        C  0.73544127  0.04462036  0.22014814     1.02300
Fe111      Fe  0.76781076  0.99144252  0.71199326     1.65800
Fe112      Fe  0.83116898  0.01089913  0.74226630     1.73200
Fe113      Fe  0.79331154  0.05005729  0.67385992     1.54400
O114        O  0.77009873  0.03256948  0.62538762    -0.82300
O115        O  0.83589399  0.04954675  0.76447867    -0.80600
O116        O  0.76152642  0.99066187  0.64431970    -0.84800
O117        O  0.73952667  0.02171764  0.72033319    -0.79600
O118        O  0.82683565  0.04052400  0.63783424    -0.81400
O119        O  0.81083357  0.00294557  0.80129796    -0.84200
C120        C  0.73959064  0.04722091  0.72065255     0.96600
C121        C  0.76039550  0.00979097  0.61681206     1.04000
O122        O  0.79754986  0.01735329  0.70941256    -1.13100
O123        O  0.83243148  0.97089302  0.72671987    -0.75600
O124        O  0.79208496  0.95801402  0.70402498    -0.79100
O125        O  0.75964233  0.06095050  0.70825562    -0.79800
C126        C  0.81646326  0.95321572  0.71261960     0.95500
O127        O  0.77031264  0.98932381  0.77993531    -0.77700
O128        O  0.85405976  0.01897499  0.68528616    -0.82900
C129        C  0.83012684  0.07220679  0.74853976     0.98100
C130        C  0.84913912  0.02967692  0.64751957     1.04000
O131        O  0.81525559  0.07471961  0.71485076    -0.78500
C132        C  0.78721448  0.99484528  0.80999096     1.02300
Fe133      Fe  0.49241212  0.20378281  0.85314385     1.65800
Fe134      Fe  0.54896901  0.17683296  0.89725234     1.73200
Fe135      Fe  0.51071841  0.14050686  0.82603336     1.54400
O136        O  0.46959200  0.14331916  0.83199133    -0.82300
O137        O  0.57481034  0.16209951  0.84969469    -0.80600
O138        O  0.45966435  0.18003443  0.87047155    -0.84800
O139        O  0.48640012  0.19700721  0.78577185    -0.79600
O140        O  0.51177344  0.11748464  0.88320773    -0.81400
O141        O  0.55826130  0.21513022  0.87454876    -0.84200
C142        C  0.49784644  0.18247381  0.75671198     0.96600
C143        C  0.45319619  0.15760236  0.85379408     1.04000
O144        O  0.51737940  0.17366234  0.85927044    -1.13100
O145        O  0.52752634  0.19189073  0.95019098    -0.75600
O146        O  0.49513830  0.21592782  0.91919330    -0.79100
O147        O  0.51031485  0.16122070  0.76686512    -0.79800
C148        C  0.50873456  0.20884961  0.95286294     0.95500
O149        O  0.52324124  0.22942655  0.83498092    -0.77700
O150        O  0.54291370  0.13886209  0.92332509    -0.82900
C151        C  0.57272939  0.14239899  0.82353925     0.98100
C152        C  0.52755281  0.11899364  0.91623408     1.04000
O153        O  0.55037910  0.13188590  0.81446761    -0.78500
C154        C  0.54724606  0.23194419  0.84847902     1.02300
Fe155      Fe  0.49386511  0.27031538  0.35652792     1.65800
Fe156      Fe  0.51470117  0.33297499  0.32600201     1.73200
Fe157      Fe  0.55274227  0.29445654  0.39335641     1.54400
O158        O  0.53616041  0.26900969  0.43940392    -0.82300
O159        O  0.55279655  0.33452245  0.29939076    -0.80600
O160        O  0.49295178  0.26582011  0.42488691    -0.84800
O161        O  0.52425176  0.24145463  0.34974266    -0.79600
O162        O  0.54203908  0.32626853  0.43215510    -0.81400
O163        O  0.50305192  0.31323573  0.26759382    -0.84200
C164        C  0.54981364  0.24169110  0.34633577     0.96600
C165        C  0.51275460  0.26204823  0.45033787     1.04000
O166        O  0.52027133  0.29930852  0.35820555    -1.13100
O167        O  0.47599838  0.33644156  0.34801244    -0.75600
O168        O  0.46059044  0.29551823  0.36225745    -0.79100
O169        O  0.56378307  0.26222104  0.35551652    -0.79800
C170        C  0.45733424  0.32068304  0.35919702     0.95500
O171        O  0.49199170  0.27183124  0.28856710    -0.77700
O172        O  0.52608374  0.35549846  0.38209127    -0.82900
C173        C  0.57482677  0.33189529  0.31945167     0.98100
C174        C  0.53400564  0.34953749  0.42138407     1.04000
O175        O  0.57664591  0.31909637  0.35555113    -0.78500
C176        C  0.49572316  0.28937659  0.25865524     1.02300
Fe177      Fe  0.21228985  0.98328005  0.33886188     1.65800
Fe178      Fe  0.18801136  0.92466488  0.38113039     1.73200
Fe179      Fe  0.14869195  0.96198958  0.31379540     1.54400
O180        O  0.14543909  0.99989047  0.33831244    -0.82300
O181        O  0.16538809  0.89986257  0.34061375    -0.80600
O182        O  0.18666480  0.01605235  0.34824124    -0.84800
O183        O  0.20861195  0.98563319  0.27076992    -0.79600
O184        O  0.12612998  0.94920596  0.36798923    -0.81400
O185        O  0.22178909  0.91393310  0.34676827    -0.84200
C186        C  0.18971029  0.98220930  0.24333579     0.96600
C187        C  0.16126431  0.01855024  0.34903707     1.04000
O188        O  0.18312560  0.95670365  0.34435666    -1.13100
O189        O  0.21131372  0.94319469  0.42828246    -0.75600
O190        O  0.22044678  0.98451829  0.40633541    -0.79100
O191        O  0.16644047  0.97489281  0.25528110    -0.79800
C192        C  0.22150140  0.96598454  0.43507798     0.95500
O193        O  0.24089594  0.95308944  0.32913608    -0.77700
O194        O  0.15482990  0.93369792  0.41853743    -0.82900
C195        C  0.15199585  0.90197341  0.30496537     0.98100
C196        C  0.13141893  0.94054521  0.40677087     1.04000
O197        O  0.14781107  0.92436230  0.28658769    -0.78500
C198        C  0.24135932  0.92756887  0.33198528     1.02300
Fe199      Fe  0.27054847  0.98101510  0.83778748     1.65800
Fe200      Fe  0.33458899  0.95940738  0.81736789     1.73200
Fe201      Fe  0.29227910  0.92181827  0.88017142     1.54400
O202        O  0.26715388  0.94037739  0.92532590    -0.82300
O203        O  0.33767996  0.92127018  0.79217836    -0.80600
O204        O  0.26235442  0.98272874  0.90499014    -0.84800
O205        O  0.24151617  0.95164715  0.82787003    -0.79600
O206        O  0.32400500  0.93020400  0.92113255    -0.81400
O207        O  0.31808325  0.97067291  0.75641387    -0.84200
C208        C  0.24087260  0.92615563  0.82717627     0.96600
C209        C  0.25928786  0.96402161  0.93296095     1.04000
O210        O  0.29918816  0.95411747  0.84486312    -1.13100
O211        O  0.33704409  0.99808880  0.83987739    -0.75600
O212        O  0.29555561  0.01379452  0.84687113    -0.79100
O213        O  0.26016215  0.91180533  0.84101680    -0.79800
C214        C  0.32076389  0.01675493  0.84876463     0.95500
O215        O  0.27568953  0.98233457  0.76998098    -0.77700
O216        O  0.35453983  0.94794647  0.87515797    -0.82900
C217        C  0.33224842  0.89892082  0.80976388     0.98100
C218        C  0.34763266  0.93831330  0.91278898     1.04000
O219        O  0.31646239  0.89689896  0.84265844    -0.78500
C220        C  0.29497807  0.97806234  0.74334708     1.02300
Fe221      Fe  0.48649705  0.70199602  0.70530841     1.65800
Fe222      Fe  0.42750892  0.68085437  0.66393148     1.73200
Fe223      Fe  0.46285217  0.63952320  0.72981530     1.54400
O224        O  0.50083177  0.63448530  0.70586107    -0.82300
O225        O  0.40201151  0.65659623  0.70057477    -0.80600
O226        O  0.51861567  0.67525731  0.70032756    -0.84800
O227        O  0.48654728  0.69908973  0.77329834    -0.79600
O228        O  0.44936657  0.61854519  0.67385735    -0.81400
O229        O  0.41727056  0.71255770  0.70331187    -0.84200
C230        C  0.48300520  0.68016528  0.80080960     0.96600
C231        C  0.52047805  0.64987827  0.69867379     1.04000
O232        O  0.45913932  0.67410237  0.69999611    -1.13100
O233        O  0.44627683  0.70660055  0.62011263    -0.75600
O234        O  0.48929717  0.70781660  0.63737793    -0.79100
O235        O  0.47615554  0.65670360  0.78896691    -0.79800
C236        C  0.47020547  0.71299471  0.61110677     0.95500
O237        O  0.45724272  0.73208692  0.71151375    -0.77700
O238        O  0.43744628  0.64936147  0.62351975    -0.82900
C239        C  0.40329402  0.64422235  0.73730665     0.98100
C240        C  0.44301584  0.62540775  0.63435221     1.04000
O241        O  0.42526358  0.64059042  0.75705607    -0.78500
C242        C  0.43165511  0.73248419  0.71406206     1.02300
Fe243      Fe  0.48532958  0.76415467  0.20412408     1.65800
Fe244      Fe  0.46538942  0.82748546  0.23121926     1.73200
Fe245      Fe  0.42996014  0.79117046  0.15840504     1.54400
O246        O  0.44829216  0.76560779  0.11450989    -0.82300
O247        O  0.42686402  0.82731701  0.25622420    -0.80600
O248        O  0.49010899  0.75921545  0.13604036    -0.84800
O249        O  0.45364852  0.73658876  0.20552480    -0.79600
O250        O  0.44391500  0.82286247  0.12208595    -0.81400
O251        O  0.47718432  0.80824948  0.28952765    -0.84200
C252        C  0.42805764  0.73773021  0.20378230     0.96600
C253        C  0.47161218  0.75668043  0.10759470     1.04000
O254        O  0.46038391  0.79415043  0.19835135    -1.13100
O255        O  0.50410700  0.83066055  0.20899173    -0.75600
O256        O  0.51927048  0.78869298  0.20350326    -0.79100
O257        O  0.41550303  0.75889113  0.19290666    -0.79800
C258        C  0.52280239  0.81392482  0.20260828     0.95500
O259        O  0.48343840  0.76539224  0.27237056    -0.77700
O260        O  0.45381880  0.85115961  0.17692048    -0.82900
C261        C  0.40576823  0.82679830  0.23302686     0.98100
C262        C  0.44862244  0.84628550  0.13619662     1.04000
O263        O  0.40535005  0.81642536  0.19461979    -0.78500
C264        C  0.48171637  0.78410787  0.30065747     1.02300
Fe265      Fe  0.99303917  0.71014630  0.19970857     1.65800
Fe266      Fe  0.01493797  0.64728674  0.22479415     1.73200
Fe267      Fe  0.05065246  0.68695018  0.15660071     1.54400
O268        O  0.03232696  0.71402062  0.11411022    -0.82300
O269        O  0.05320918  0.64733978  0.25022703    -0.80600
O270        O  0.98937346  0.71477074  0.13194013    -0.84800
O271        O  0.02360026  0.73933701  0.20374067    -0.79600
O272        O  0.03895341  0.65614723  0.11643217    -0.81400
O273        O  0.00249554  0.66534337  0.28390595    -0.84200
C274        C  0.04921415  0.73853434  0.20654734     0.96600
C275        C  0.00826612  0.72001785  0.10526936     1.04000
O276        O  0.01929545  0.68137467  0.19405174    -1.13100
O277        O  0.97626831  0.64306288  0.20312400    -0.75600
O278        O  0.95988142  0.68446239  0.19735921    -0.79100
O279        O  0.06262416  0.71778987  0.19637891    -0.79800
C280        C  0.95705209  0.65915358  0.19690188     0.95500
O281        O  0.99393677  0.70801625  0.26731373    -0.77700
O282        O  0.02740784  0.62604292  0.16831636    -0.82900
C283        C  0.07463671  0.64853822  0.22781012     0.98100
C284        C  0.03386076  0.63226831  0.12840646     1.04000
O285        O  0.07558897  0.66075967  0.19086998    -0.78500
C286        C  0.99660819  0.68920017  0.29520280     1.02300
Fe287      Fe  0.99170059  0.76873914  0.69966396     1.65800
Fe288      Fe  0.04988651  0.79229135  0.65829318     1.73200
Fe289      Fe  0.01219214  0.83238814  0.72392100     1.54400
O290        O  0.97344448  0.83505481  0.70193830    -0.82300
O291        O  0.07434806  0.81700099  0.69475827    -0.80600
O292        O  0.95811081  0.79344923  0.69598078    -0.84800
O293        O  0.99178671  0.77134571  0.76774567    -0.79600
O294        O  0.02339307  0.85368920  0.66717549    -0.81400
O295        O  0.06140088  0.76051560  0.69741470    -0.84200
C296        C  0.99452336  0.79037342  0.79529105     0.96600
C297        C  0.95468128  0.81861045  0.69499613     1.04000
O298        O  0.01785879  0.79789602  0.69444004    -1.13100
O299        O  0.03194215  0.76655595  0.61401589    -0.75600
O300        O  0.98896323  0.76384780  0.63171208    -0.79100
O301        O  0.00065146  0.81412102  0.78346741    -0.79800
C302        C  0.00814100  0.75991915  0.60490220     0.95500
O303        O  0.02200042  0.73968070  0.70429835    -0.77700
O304        O  0.03925770  0.82384737  0.61820257    -0.82900
C305        C  0.07263808  0.83110827  0.72950198     0.98100
C306        C  0.03150523  0.84732241  0.62832720     1.04000
O307        O  0.05051222  0.83504457  0.74908052    -0.78500
C308        C  0.04751323  0.74004494  0.70729106     1.02300
Fe309      Fe  0.26908635  0.49206947  0.33558314     1.65800
Fe310      Fe  0.29322487  0.55155899  0.37265456     1.73200
Fe311      Fe  0.33257545  0.51121393  0.31007320     1.54400
O312        O  0.33134412  0.47043807  0.32033272    -0.82300
O313        O  0.30602437  0.57520537  0.32023163    -0.80600
O314        O  0.29346685  0.46058390  0.35579758    -0.84800
O315        O  0.27678986  0.48436386  0.26914677    -0.79600
O316        O  0.35375155  0.51560659  0.36901450    -0.81400
O317        O  0.25427858  0.55732076  0.35157565    -0.84200
C318        C  0.29251861  0.49396526  0.23985988     0.96600
C319        C  0.31653422  0.45422551  0.34144265     1.04000
O320        O  0.29823007  0.51824334  0.33964090    -1.13100
O321        O  0.28014177  0.53137876  0.42849436    -0.75600
O322        O  0.25740406  0.49678229  0.40127224    -0.79100
O323        O  0.31356401  0.50693042  0.24977158    -0.79800
C324        C  0.26436887  0.51166535  0.43342105     0.95500
O325        O  0.24177197  0.52082940  0.31478724    -0.77700
O326        O  0.33159955  0.55040318  0.39765107    -0.82900
C327        C  0.32728694  0.57285619  0.29734170     0.98100
C328        C  0.35190031  0.53510191  0.39596816     1.04000
O329        O  0.33972252  0.55081285  0.29429308    -0.78500
C330        C  0.23778750  0.54478604  0.32727300     1.02300
Fe331      Fe  0.20780677  0.49153004  0.84028146     1.65800
Fe332      Fe  0.14496289  0.51237043  0.81015115     1.73200
Fe333      Fe  0.18314806  0.55003006  0.87870168     1.54400
O334        O  0.20726088  0.53181100  0.92568847    -0.82300
O335        O  0.14248458  0.55056850  0.78506124    -0.80600
O336        O  0.21117329  0.48897944  0.90824950    -0.84800
O337        O  0.23711501  0.52160470  0.83686580    -0.79600
O338        O  0.15026651  0.54009695  0.91584693    -0.81400
O339        O  0.16531113  0.50134064  0.75178556    -0.84200
C340        C  0.23693435  0.54712732  0.83462224     0.96600
C341        C  0.21445138  0.50815553  0.93501459     1.04000
O342        O  0.17854357  0.51790977  0.84267679    -1.13100
O343        O  0.14188841  0.47373080  0.83142481    -0.75600
O344        O  0.18291422  0.45798895  0.84313640    -0.79100
O345        O  0.21618680  0.56088894  0.84307110    -0.79800
C346        C  0.15769902  0.45491503  0.84132410     0.95500
O347        O  0.20709994  0.49158915  0.77260109    -0.77700
O348        O  0.12181785  0.52330174  0.86555999    -0.82900
C349        C  0.14638705  0.57282753  0.80381690     0.98100
C350        C  0.12714377  0.53204810  0.90446993     1.04000
O351        O  0.16010024  0.57495165  0.83899464    -0.78500
C352        C  0.18954439  0.49510324  0.74279881     1.02300
C353        C  0.25345381  0.51387282  0.55793470    -0.11400
C354        C  0.23063341  0.49774676  0.56328076     0.05700
C355        C  0.21925300  0.48570438  0.52571819    -0.10200
C356        C  0.23057444  0.48970304  0.48358044    -0.11800
C357        C  0.25323165  0.50615065  0.47820194    -0.01600
C358        C  0.26455578  0.51812463  0.51590311    -0.10700
C359        C  0.21901438  0.49381889  0.60820620     0.05700
H360        H  0.20176687  0.47307117  0.52902798     0.07600
H361        H  0.22130471  0.48029487  0.45512445     0.11100
H362        H  0.28197937  0.53088954  0.51293745     0.11400
H363        H  0.26247118  0.52362919  0.58633141     0.07700
C364        C  0.23602644  0.48856353  0.64409911    -0.11400
C365        C  0.22603982  0.48788669  0.68730140    -0.10700
C366        C  0.19871471  0.49262318  0.69597702    -0.01600
C367        C  0.18134781  0.49657486  0.65983913    -0.11800
C368        C  0.19142491  0.49702609  0.61620785    -0.10200
H369        H  0.25727233  0.48553911  0.63879100     0.07700
H370        H  0.24009442  0.48450104  0.71409947     0.11400
H371        H  0.16021598  0.50012108  0.66533594     0.11100
H372        H  0.17789275  0.50108186  0.58896589     0.07700
C373        C  0.28999755  0.50445773  0.11537122    -0.11400
C374        C  0.26602944  0.49134960  0.10437470     0.05700
C375        C  0.25256425  0.47664819  0.13732340    -0.10200
C376        C  0.26200023  0.47637013  0.18094227    -0.11800
C377        C  0.28510952  0.49080191  0.19256111    -0.01600
C378        C  0.29946165  0.50418091  0.15902269    -0.10700
C379        C  0.25386152  0.49494288  0.05988757     0.05700
H380        H  0.23396524  0.46650593  0.12993851     0.07600
H381        H  0.25051345  0.46573035  0.20591455     0.11100
H382        H  0.31741059  0.51535631  0.16678492     0.11400
H383        H  0.30103875  0.51556862  0.09040793     0.07700
C384        C  0.25365509  0.52037054  0.04004814    -0.11400
C385        C  0.24070638  0.52452048  0.99966413    -0.10700
C386        C  0.22781433  0.50331364  0.97796800    -0.01600
C387        C  0.22836713  0.47772784  0.99726271    -0.11800
C388        C  0.24111660  0.47362355  0.03808469    -0.10200
H389        H  0.26291776  0.53727411  0.05633441     0.07700
H390        H  0.24087457  0.54440416  0.98530294     0.11400
H391        H  0.21865773  0.46103404  0.98112715     0.11100
H392        H  0.24106789  0.45378180  0.05256920     0.07700
C393        C  0.09224491  0.61851372  0.75991173    -0.11400
C394        C  0.10484593  0.64374695  0.75996469     0.05700
C395        C  0.13200376  0.64492788  0.77273659    -0.10200
C396        C  0.14574623  0.62188270  0.78627399    -0.11800
C397        C  0.13303221  0.59691083  0.78584063    -0.01600
C398        C  0.10628281  0.59540902  0.77198968    -0.10700
C399        C  0.08975237  0.66856923  0.74704342     0.05700
H400        H  0.14285885  0.66363139  0.77226836     0.07600
H401        H  0.16636285  0.62354171  0.79695375     0.11100
H402        H  0.09582497  0.57642923  0.77238241     0.11400
H403        H  0.07129967  0.61649358  0.75167291     0.07700
C404        C  0.06789667  0.66736205  0.71747271    -0.11400
C405        C  0.05377280  0.69047297  0.70559849    -0.10700
C406        C  0.06159355  0.71553380  0.72179444    -0.01600
C407        C  0.08342767  0.71703399  0.75087772    -0.11800
C408        C  0.09702960  0.69383451  0.76399091    -0.10200
H409        H  0.06186007  0.64864534  0.70256661     0.07700
H410        H  0.03719775  0.68887189  0.68260064     0.11400
H411        H  0.08970637  0.73616602  0.76406090     0.11100
H412        H  0.11308325  0.69584992  0.78772363     0.07700
C413        C  0.18011646  0.59413803  0.32597844    -0.11400
C414        C  0.16706619  0.58766921  0.28617021     0.05700
C415        C  0.17708348  0.56650963  0.26022314    -0.10200
C416        C  0.19970712  0.55209196  0.27392901    -0.11800
C417        C  0.21307868  0.55896342  0.31334294    -0.01600
C418        C  0.20299926  0.58013920  0.33918222    -0.10700
C419        C  0.14343328  0.60340029  0.27148360     0.05700
H420        H  0.16730222  0.56105424  0.22946918     0.07600
H421        H  0.20707275  0.53596504  0.25325881     0.11100
H422        H  0.21279496  0.58585644  0.36980413     0.11400
H423        H  0.17293057  0.61045711  0.34642163     0.07700
C424        C  0.12226746  0.60880764  0.30104675    -0.11400
C425        C  0.10009822  0.62382848  0.28723981    -0.10700
C426        C  0.09884285  0.63417406  0.24377523    -0.01600
C427        C  0.12022983  0.62898449  0.21443800    -0.11800
C428        C  0.14215748  0.61361309  0.22804010    -0.10200
H429        H  0.12270726  0.60104185  0.33466490     0.07700
H430        H  0.08388991  0.62723480  0.31053339     0.11400
H431        H  0.11979852  0.63636361  0.18057419     0.11100
H432        H  0.15830468  0.60993047  0.20471766     0.07700
C433        C  0.06190092  0.55300113  0.95652421    -0.11400
C434        C  0.06946922  0.55504054  0.00141652     0.05700
C435        C  0.09413247  0.54422694  0.01473760    -0.10200
C436        C  0.11206551  0.53434361  0.98319451    -0.11800
C437        C  0.10559673  0.53483117  0.93778492    -0.01600
C438        C  0.07980518  0.54279106  0.92491357    -0.10700
C439        C  0.05446872  0.57246750  0.03260319     0.05700
H440        H  0.10062650  0.54560943  0.04897259     0.07600
H441        H  0.13176549  0.52807362  0.99399698     0.11100
H442        H  0.07434634  0.54334727  0.89008508     0.11400
H443        H  0.04285515  0.56091592  0.94550249     0.07700
C444        C  0.04648894  0.59808040  0.01865331    -0.11400
C445        C  0.03817664  0.61711683  0.04962116    -0.10700
C446        C  0.03741069  0.61085273  0.09515637    -0.01600
C447        C  0.04337731  0.58464282  0.10877044    -0.11800
C448        C  0.05198039  0.56565418  0.07778886    -0.10200
H449        H  0.04853117  0.60406978  0.98419064     0.07700
H450        H  0.03359141  0.63712620  0.03813325     0.11400
H451        H  0.04305427  0.57927879  0.14367229     0.11100
H452        H  0.05792565  0.54603357  0.08941666     0.07700
C453        C  0.00279109  0.68758798  0.42062899    -0.11400
C454        C  0.99286457  0.71299336  0.43200439     0.05700
C455        C  0.98214838  0.72937412  0.39867397    -0.10200
C456        C  0.98243912  0.72104764  0.35450989    -0.11800
C457        C  0.99335572  0.69609191  0.34268265    -0.01600
C458        C  0.00290545  0.67912226  0.37632639    -0.10700
C459        C  0.99574410  0.72343850  0.47767338     0.05700
H460        H  0.97465100  0.74914116  0.40648938     0.07600
H461        H  0.97478180  0.73458479  0.32940041     0.11100
H462        H  0.01142130  0.65982011  0.36825634     0.11400
H463        H  0.01100502  0.67454114  0.44594149     0.07700
C464        C  0.97468645  0.73728215  0.49857804    -0.11400
C465        C  0.97833537  0.74868972  0.54058431    -0.10700
C466        C  0.00326398  0.74684690  0.56179749    -0.01600
C467        C  0.02417939  0.73282703  0.54093164    -0.11800
C468        C  0.02041120  0.72110886  0.49945741    -0.10200
H469        H  0.95547996  0.73935721  0.48229923     0.07700
H470        H  0.96196028  0.75949288  0.55592523     0.11400
H471        H  0.04358555  0.73099358  0.55667070     0.11100
H472        H  0.03707099  0.71091984  0.48376599     0.07700
C473        C  0.97280648  0.74414696  0.00121907    -0.11400
C474        C  0.99350392  0.75804024  0.97934538     0.05700
C475        C  0.01849771  0.76027291  0.00021363    -0.10200
C476        C  0.02302859  0.74817944  0.04131796    -0.11800
C477        C  0.00258782  0.73380810  0.06281946    -0.01600
C478        C  0.97723633  0.73234429  0.04284528    -0.10700
C479        C  0.99008718  0.76833480  0.93341585     0.05700
H480        H  0.03491389  0.77052476  0.98393542     0.07600
H481        H  0.04269766  0.74986587  0.05611347     0.11100
H482        H  0.96111773  0.72142797  0.05875863     0.11400
H483        H  0.95331592  0.74219344  0.98588593     0.07700
C484        C  0.97852391  0.75205986  0.90075013    -0.11400
C485        C  0.97907181  0.75978356  0.85612097    -0.10700
C486        C  0.99101074  0.78406828  0.84314505    -0.01600
C487        C  0.00111844  0.80111114  0.87615650    -0.11800
C488        C  0.00078078  0.79324496  0.92084378    -0.10200
H489        H  0.97031719  0.73268973  0.90937927     0.07700
H490        H  0.97085318  0.74628850  0.83157411     0.11400
H491        H  0.01033065  0.81998401  0.86729244     0.11100
H492        H  0.00957457  0.80630361  0.94549864     0.07700
C493        C  0.37657694  0.61690314  0.23551157    -0.11400
C494        C  0.36623666  0.64255355  0.24351480     0.05700
C495        C  0.34144627  0.64496547  0.26544464    -0.10200
C496        C  0.32802664  0.62226008  0.28121829    -0.11800
C497        C  0.33908848  0.59666442  0.27519301    -0.01600
C498        C  0.36316678  0.59425259  0.25108722    -0.10700
C499        C  0.38211280  0.66666425  0.23170478     0.05700
H500        H  0.33303131  0.66449908  0.27228151     0.07600
H501        H  0.30955513  0.62485155  0.29962026     0.11100
H502        H  0.37222028  0.57485276  0.24549403     0.11400
H503        H  0.39537095  0.61438039  0.21797738     0.07700
C504        C  0.40980197  0.66736370  0.23997736    -0.11400
C505        C  0.42470416  0.69040337  0.23105438    -0.10700
C506        C  0.41225693  0.71333439  0.21372640    -0.01600
C507        C  0.38459925  0.71251903  0.20490009    -0.11800
C508        C  0.36969988  0.68944923  0.21381498    -0.10200
H509        H  0.41988061  0.65024762  0.25435511     0.07700
H510        H  0.44593974  0.69031692  0.23816045     0.11400
H511        H  0.37442318  0.72969929  0.19093027     0.11100
H512        H  0.34848305  0.68939235  0.20658784     0.07700
C513        C  0.30925750  0.56231850  0.80424624    -0.11400
C514        C  0.30858670  0.59031178  0.80055786     0.05700
C515        C  0.28453513  0.60388622  0.80855123    -0.10200
C516        C  0.26142030  0.58977381  0.81964889    -0.11800
C517        C  0.26175858  0.56168580  0.82262674    -0.01600
C518        C  0.28598607  0.54808185  0.81498472    -0.10700
C519        C  0.33256469  0.60538440  0.78652562     0.05700
H520        H  0.28365573  0.62548382  0.80620942     0.07600
H521        H  0.24321260  0.60096589  0.82568369     0.11100
H522        H  0.28695742  0.52649180  0.81721230     0.11400
H523        H  0.32764000  0.55146804  0.79785839     0.07700
C524        C  0.35716293  0.60157555  0.80796704    -0.11400
C525        C  0.37996601  0.61518354  0.79327316    -0.10700
C526        C  0.37861784  0.63252266  0.75643590    -0.01600
C527        C  0.35376321  0.63678424  0.73580989    -0.11800
C528        C  0.33094683  0.62343621  0.75087137    -0.10200
H529        H  0.35873316  0.58795386  0.83587489     0.07700
H530        H  0.39880864  0.61148032  0.80993316     0.11400
H531        H  0.35203060  0.64995726  0.70735649     0.11100
H532        H  0.31213774  0.62659056  0.73379722     0.07700
C533        C  0.44243595  0.59423741  0.52093727    -0.11400
C534        C  0.42565004  0.57204501  0.52798936     0.05700
C535        C  0.41925226  0.56469023  0.57194022    -0.10200
C536        C  0.42701412  0.58094464  0.60756428    -0.11800
C537        C  0.44089030  0.60487283  0.59952931    -0.01600
C538        C  0.44955229  0.61076365  0.55625280    -0.10700
C539        C  0.41059485  0.56053186  0.48999373     0.05700
H540        H  0.40630984  0.54778719  0.57851145     0.07600
H541        H  0.42017125  0.57605237  0.64080836     0.11100
H542        H  0.46065422  0.62892217  0.54945633     0.11400
H543        H  0.44831629  0.60000930  0.48759423     0.07700
C544        C  0.39999464  0.57811139  0.45809752    -0.11400
C545        C  0.38210597  0.56907509  0.42628308    -0.10700
C546        C  0.37436900  0.54219698  0.42511251    -0.01600
C547        C  0.38591228  0.52400991  0.45507563    -0.11800
C548        C  0.40380722  0.53320262  0.48770315    -0.10200
H549        H  0.40416715  0.59933075  0.45930450     0.07700
H550        H  0.37337705  0.58342243  0.40348981     0.11400
H551        H  0.37998475  0.50320345  0.45483494     0.11100
H552        H  0.41164880  0.51920157  0.51188683     0.07700
C553        C  0.49456264  0.74381384  0.40529960    -0.11400
C554        C  0.48575740  0.76128991  0.43865612     0.05700
C555        C  0.47726517  0.78711996  0.42678729    -0.10200
C556        C  0.47694241  0.79506453  0.38207917    -0.11800
C557        C  0.48463341  0.77710490  0.34841399    -0.01600
C558        C  0.49386835  0.75155797  0.36070183    -0.10700
C559        C  0.48306688  0.75146990  0.48491235     0.05700
H560        H  0.47039880  0.80093641  0.45206909     0.07600
H561        H  0.46978008  0.81488248  0.37379482     0.11100
H562        H  0.50005234  0.73724142  0.33571013     0.11400
H563        H  0.50089120  0.72369880  0.41360041     0.07700
C564        C  0.45827455  0.75335551  0.50663981    -0.11400
C565        C  0.45438783  0.74114704  0.54789820    -0.10700
C566        C  0.47533932  0.72713159  0.56869107    -0.01600
C567        C  0.50053415  0.72624123  0.54789022    -0.11800
C568        C  0.50426932  0.73805149  0.50604026    -0.10200
H569        H  0.44156693  0.76333919  0.49083486     0.07700
H570        H  0.43481204  0.74241485  0.56332606     0.11400
H571        H  0.51702145  0.71564536  0.56321844     0.11100
H572        H  0.52358022  0.73636831  0.48978805     0.07700
C573        C  0.50240526  0.71676481  0.90572983    -0.11400
C574        C  0.48612756  0.70429330  0.93770377     0.05700
C575        C  0.47082837  0.68192475  0.92509652    -0.10200
C576        C  0.47096540  0.67296242  0.88099941    -0.11800
C577        C  0.48613724  0.68643016  0.84859397    -0.01600
C578        C  0.50228985  0.70803013  0.86164792    -0.10700
C579        C  0.48323925  0.71615484  0.98273198     0.05700
H580        H  0.45823991  0.67178198  0.94914261     0.07600
H581        H  0.45819847  0.65637917  0.87185007     0.11100
H582        H  0.51424979  0.71875447  0.83737276     0.11400
H583        H  0.51418894  0.73417235  0.91427775     0.07700
C584        C  0.50548529  0.72612906  0.00613655    -0.11400
C585        C  0.50208609  0.73894405  0.04726450    -0.10700
C586        C  0.47632350  0.74238332  0.06519933    -0.01600
C587        C  0.45423719  0.73208550  0.04191640    -0.11800
C588        C  0.45764801  0.71909646  0.00137665    -0.10200
H589        H  0.52547928  0.72406560  0.99254007     0.07700
H590        H  0.51945121  0.74661291  0.06450089     0.11400
H591        H  0.43411138  0.73415408  0.05498447     0.11100
H592        H  0.44008218  0.71205608  0.98393755     0.07700
C593        C  0.16971565  0.91413705  0.78769992    -0.11400
C594        C  0.16918839  0.88614437  0.78360514     0.05700
C595        C  0.19266193  0.87161835  0.79251792    -0.10200
C596        C  0.21598720  0.88466258  0.80582197    -0.11800
C597        C  0.21647106  0.91260513  0.81056680    -0.01600
C598        C  0.19312183  0.92723470  0.80094579    -0.10700
C599        C  0.14431247  0.87195644  0.77041313     0.05700
H600        H  0.19285854  0.85001833  0.79018769     0.07600
H601        H  0.23358209  0.87274978  0.81292100     0.11100
H602        H  0.19279771  0.94878731  0.80423710     0.11400
H603        H  0.15206987  0.92592590  0.78046383     0.07700
C604        C  0.11920019  0.87985674  0.78715591    -0.11400
C605        C  0.09593620  0.86604898  0.77518285    -0.10700
C606        C  0.09729482  0.84417241  0.74599832    -0.01600
C607        C  0.12242559  0.83629571  0.72938486    -0.11800
C608        C  0.14561236  0.84999155  0.74145290    -0.10200
H609        H  0.11756453  0.89655352  0.80986632     0.07700
H610        H  0.07683225  0.87284438  0.78805181     0.11400
H611        H  0.12417796  0.81968817  0.70652070     0.11100
H612        H  0.16456432  0.84363042  0.72744354     0.07700
C613        C  0.37986377  0.85323630  0.74665197    -0.11400
C614        C  0.37528404  0.82855371  0.76770211     0.05700
C615        C  0.35586393  0.82706544  0.80148233    -0.10200
C616        C  0.34135996  0.84970325  0.81406248    -0.11800
C617        C  0.34586092  0.87446795  0.79314387    -0.01600
C618        C  0.36525283  0.87594827  0.75914950    -0.10700
C619        C  0.39013992  0.80416554  0.75408313     0.05700
H620        H  0.35216200  0.80839645  0.81871575     0.07600
H621        H  0.32691630  0.84784998  0.84081614     0.11100
H622        H  0.36944157  0.89474219  0.74263271     0.11400
H623        H  0.39455346  0.85490331  0.72024812     0.07700
C624        C  0.37638091  0.77992658  0.74892885    -0.11400
C625        C  0.38998230  0.75675672  0.73650256    -0.10700
C626        C  0.41778494  0.75714103  0.72900331    -0.01600
C627        C  0.43167180  0.78138303  0.73433869    -0.11800
C628        C  0.41794278  0.80471823  0.74655546    -0.10200
H629        H  0.35491832  0.77895477  0.75394499     0.07700
H630        H  0.37858460  0.73850425  0.73258652     0.11400
H631        H  0.45305736  0.78238999  0.72863478     0.11100
H632        H  0.42908178  0.82310867  0.75062343     0.07700
C633        C  0.41433492  0.92646321  0.96891907    -0.11400
C634        C  0.40605222  0.91929640  0.01197518     0.05700
C635        C  0.37891637  0.92172104  0.02348639    -0.10200
C636        C  0.36011101  0.92937798  0.99176249    -0.11800
C637        C  0.36807268  0.93503894  0.94789855    -0.01600
C638        C  0.39550886  0.93455427  0.93721618    -0.10700
C639        C  0.42424806  0.90505718  0.04262729     0.05700
H640        H  0.37196317  0.91589574  0.05625898     0.07600
H641        H  0.33915833  0.92969027  0.00112452     0.11100
H642        H  0.40225524  0.93881449  0.90369485     0.11400
H643        H  0.43516256  0.92463137  0.95932683     0.07700
C644        C  0.43723906  0.88181322  0.02789034    -0.11400
C645        C  0.44761600  0.86362217  0.05854962    -0.10700
C646        C  0.44545647  0.86854990  0.10440202    -0.01600
C647        C  0.43532853  0.89325709  0.11886208    -0.11800
C648        C  0.42453308  0.91129147  0.08815711    -0.10200
H649        H  0.43712758  0.87647593  0.99299886     0.07700
H650        H  0.45553665  0.84480252  0.04653536     0.11400
H651        H  0.43342945  0.89754499  0.15401823     0.11100
H652        H  0.41468719  0.92918238  0.10017016     0.07700
C653        C  0.13062058  0.82984053  0.28982953    -0.11400
C654        C  0.11021344  0.83225231  0.25800209     0.05700
C655        C  0.10509627  0.85746172  0.23922587    -0.10200
C656        C  0.11966620  0.87990460  0.25278123    -0.11800
C657        C  0.13943683  0.87768237  0.28585810    -0.01600
C658        C  0.14497501  0.85229431  0.30375884    -0.10700
C659        C  0.09430013  0.80848091  0.24480011     0.05700
H660        H  0.08972793  0.85981356  0.21419227     0.07600
H661        H  0.11478911  0.89916546  0.23839239     0.11100
H662        H  0.15995654  0.84984989  0.32938761     0.11400
H663        H  0.13492339  0.81066361  0.30498636     0.07700
C664        C  0.10721735  0.78422144  0.23552293    -0.11400
C665        C  0.09248463  0.76164616  0.22362540    -0.10700
C666        C  0.06435524  0.76263998  0.22084232    -0.01600
C667        C  0.05135348  0.78692200  0.23044424    -0.11800
C668        C  0.06620131  0.80965130  0.24211497    -0.10200
H669        H  0.12883477  0.78279490  0.23694715     0.07700
H670        H  0.10327298  0.74339035  0.21632902     0.11400
H671        H  0.02975509  0.78841689  0.22867363     0.11100
H672        H  0.05572013  0.82806289  0.24959042     0.07700
C673        C  0.04338556  0.87936674  0.51692048    -0.11400
C674        C  0.05204309  0.90487981  0.52979136     0.05700
C675        C  0.04861363  0.91294059  0.57415865    -0.10200
C676        C  0.03930387  0.89479703  0.60602587    -0.11800
C677        C  0.03376602  0.86826066  0.59394284    -0.01600
C678        C  0.03448962  0.86112772  0.54881449    -0.10700
C679        C  0.06987006  0.92004972  0.49972207     0.05700
H680        H  0.05507894  0.93259649  0.58470133     0.07600
H681        H  0.03876088  0.90085220  0.64056436     0.11100
H682        H  0.02993840  0.84087670  0.53858114     0.11400
H683        H  0.04596020  0.87263211  0.48295510     0.07700
C684        C  0.09561941  0.92669379  0.51460919    -0.11400
C685        C  0.11524266  0.93488120  0.48456754    -0.10700
C686        C  0.10942621  0.93692576  0.43907224    -0.01600
C687        C  0.08308040  0.93235406  0.42458285    -0.11800
C688        C  0.06348551  0.92367539  0.45466900    -0.10200
H689        H  0.10117629  0.92363297  0.54902181     0.07700
H690        H  0.13532130  0.93839990  0.49667848     0.11400
H691        H  0.07807966  0.93373355  0.38961694     0.11100
H692        H  0.04377199  0.91851983  0.44248441     0.07700
C693        C  0.23298929  0.00064087  0.03462941    -0.11400
C694        C  0.22236330  0.97947705  0.05988828     0.05700
C695        C  0.22339254  0.95343980  0.04257400    -0.10200
C696        C  0.23523877  0.94854841  0.00130408    -0.11800
C697        C  0.24607428  0.96963002  0.97608877    -0.01600
C698        C  0.24452037  0.99579689  0.99289678    -0.10700
C699        C  0.21158731  0.98395363  0.10527372     0.05700
H700        H  0.21570637  0.93669852  0.06158346     0.07600
H701        H  0.23599461  0.92818125  0.98919709     0.11100
H702        H  0.25273236  0.01242303  0.97423164     0.11400
H703        H  0.23240702  0.02090165  0.04723402     0.07700
C704        C  0.22613452  0.99902436  0.13627543    -0.11400
C705        C  0.21828024  0.99962478  0.18094841    -0.10700
C706        C  0.19551722  0.98546465  0.19531270    -0.01600
C707        C  0.17991181  0.97202620  0.16363418    -0.11800
C708        C  0.18797961  0.97111303  0.11913427    -0.10200
H709        H  0.24443450  0.00907179  0.12649119     0.07700
H710        H  0.23058067  0.01034777  0.20454443     0.11400
H711        H  0.16225445  0.96095192  0.17363317     0.11100
H712        H  0.17622772  0.95963963  0.09576000     0.07700
C713        C  0.25606803  0.95174271  0.54451341    -0.11400
C714        C  0.26226950  0.97744191  0.55983237     0.05700
C715        C  0.25549297  0.99966385  0.53342569    -0.10200
C716        C  0.24253549  0.99615447  0.49250266    -0.11800
C717        C  0.23560960  0.97038925  0.47783394    -0.01600
C718        C  0.24275073  0.94825495  0.50423150    -0.10700
C719        C  0.27358271  0.98076345  0.60501215     0.05700
H720        H  0.26006894  0.01969337  0.54464554     0.07600
H721        H  0.23749767  0.01358474  0.47279602     0.11100
H722        H  0.23802017  0.92811811  0.49380760     0.11400
H723        H  0.26075686  0.93431683  0.56449710     0.07700
C724        C  0.26042680  0.99711423  0.63596351    -0.11400
C725        C  0.26817097  0.99703649  0.68057489    -0.10700
C726        C  0.28957166  0.98097525  0.69510320    -0.01600
C727        C  0.30376650  0.96578342  0.66359155    -0.11800
C728        C  0.29565248  0.96546260  0.61900820    -0.10200
H729        H  0.24319772  0.00885480  0.62610440     0.07700
H730        H  0.25685195  0.00899178  0.70405468     0.11400
H731        H  0.32021073  0.95308197  0.67380930     0.11100
H732        H  0.30609356  0.95267919  0.59567549     0.07700
C733        C  0.29383730  0.87302345  0.32406049    -0.11400
C734        C  0.31201711  0.88394139  0.29344449     0.05700
C735        C  0.30708007  0.90954580  0.27587982    -0.10200
C736        C  0.28431449  0.92397301  0.28866034    -0.11800
C737        C  0.26580077  0.91282100  0.31858683    -0.01600
C738        C  0.27085148  0.88720858  0.33620751    -0.10700
C739        C  0.33563815  0.86836988  0.27867285     0.05700
H740        H  0.32094173  0.91842352  0.25237455     0.07600
H741        H  0.28097992  0.94364576  0.27461397     0.11100
H742        H  0.25708270  0.87816496  0.35968116     0.11400
H743        H  0.29712833  0.85327769  0.33783745     0.07700
C744        C  0.35282474  0.85610491  0.30958101    -0.11400
C745        C  0.37566408  0.84229638  0.29507593    -0.10700
C746        C  0.38119276  0.83996985  0.24942608    -0.01600
C747        C  0.36352519  0.85158854  0.21867346    -0.11800
C748        C  0.34115058  0.86583417  0.23314604    -0.10200
H749        H  0.34892759  0.85778968  0.34490476     0.07700
H750        H  0.38896852  0.83348115  0.31939882     0.11400
H751        H  0.36742142  0.85029815  0.18328879     0.11100
H752        H  0.32805179  0.87485440  0.20869589     0.07700
C753        C  0.40595342  0.37202924  0.39220522    -0.11400
C754        C  0.38328945  0.36345089  0.36875104     0.05700
C755        C  0.38416938  0.33865922  0.34672231    -0.10200
C756        C  0.40772229  0.32328178  0.34676505    -0.11800
C757        C  0.43087703  0.33289870  0.36775128    -0.01600
C758        C  0.42955463  0.35708246  0.39128312    -0.10700
C759        C  0.36063722  0.38231831  0.36259112     0.05700
H760        H  0.36698910  0.33172909  0.32813541     0.07600
H761        H  0.40840522  0.30488918  0.32786144     0.11100
H762        H  0.44721894  0.36500952  0.40737865     0.11400
H763        H  0.40597981  0.39122810  0.40881290     0.07700
C764        C  0.34971227  0.39619600  0.39905783    -0.11400
C765        C  0.33298285  0.41835959  0.39236692    -0.10700
C766        C  0.32742302  0.42723294  0.34912560    -0.01600
C767        C  0.33694910  0.41239929  0.31277005    -0.11800
C768        C  0.35311615  0.38991910  0.31943300    -0.10200
H769        H  0.35533731  0.39076636  0.43263164     0.07700
H770        H  0.32616112  0.42977067  0.42080717     0.11400
H771        H  0.33308489  0.41911974  0.27912683     0.11100
H772        H  0.36150999  0.37982006  0.29077269     0.07700
C773        C  0.39012016  0.12061479  0.82592682    -0.11400
C774        C  0.38076300  0.11316205  0.86819936     0.05700
C775        C  0.39312027  0.12412925  0.90602356    -0.10200
C776        C  0.41538205  0.14110386  0.90149694    -0.11800
C777        C  0.42590201  0.14673657  0.85915569    -0.01600
C778        C  0.41262904  0.13694092  0.82148633    -0.10700
C779        C  0.36143136  0.09072364  0.87184445     0.05700
H780        H  0.38637544  0.11849779  0.93897235     0.07600
H781        H  0.42559760  0.14804727  0.93100635     0.11100
H782        H  0.42063374  0.14072198  0.78854046     0.11400
H783        H  0.38129994  0.11210331  0.79628800     0.07700
C784        C  0.33801281  0.09029290  0.84593684    -0.11400
C785        C  0.32328523  0.06660399  0.84115062    -0.10700
C786        C  0.33222684  0.04288754  0.86121739    -0.01600
C787        C  0.35459454  0.04375892  0.88936512    -0.11800
C788        C  0.36886279  0.06752516  0.89507843    -0.10200
H789        H  0.33195077  0.10792007  0.82758994     0.07700
H790        H  0.30612579  0.06636124  0.81921562     0.11400
H791        H  0.36174901  0.02570389  0.90536592     0.11100
H792        H  0.38695054  0.06721472  0.91485905     0.07700
C793        C  0.48187844  0.24460837  0.15997889    -0.11400
C794        C  0.49271158  0.25928794  0.12450805     0.05700
C795        C  0.50193300  0.28542085  0.13246025    -0.10200
C796        C  0.50180984  0.29599205  0.17574629    -0.11800
C797        C  0.49227353  0.28064154  0.21170044    -0.01600
C798        C  0.48151242  0.25516919  0.20287991    -0.10700
C799        C  0.49602593  0.24640574  0.08033482     0.05700
H800        H  0.51040919  0.29713806  0.10559503     0.07600
H801        H  0.51022176  0.31564409  0.18131049     0.11100
H802        H  0.47362373  0.24284248  0.22951323     0.11400
H803        H  0.47425477  0.22459745  0.15463920     0.07700
C804        C  0.50813073  0.22110144  0.07731985    -0.11400
C805        C  0.51187310  0.20880566  0.03605684    -0.10700
C806        C  0.50316666  0.22129836  0.99676562    -0.01600
C807        C  0.49066450  0.24647143  0.99981301    -0.11800
C808        C  0.48738389  0.25903306  0.04117220    -0.10200
H809        H  0.51519299  0.21102722  0.10697426     0.07700
H810        H  0.52167336  0.18950589  0.03490845     0.11400
H811        H  0.48400752  0.25675061  0.97009524     0.11100
H812        H  0.47794475  0.27850684  0.04264520     0.07700
C813        C  0.52861966  0.22647521  0.55815819    -0.11400
C814        C  0.50317023  0.22373516  0.57744593     0.05700
C815        C  0.48070196  0.23344426  0.55444130    -0.10200
C816        C  0.48363091  0.24572427  0.51289860    -0.11800
C817        C  0.50913747  0.24879338  0.49390601    -0.01600
C818        C  0.53158833  0.23897394  0.51696348    -0.10700
C819        C  0.50028051  0.21179952  0.62227757     0.05700
H820        H  0.46083647  0.23143540  0.56858124     0.07600
H821        H  0.46601454  0.25307188  0.49592424     0.11100
H822        H  0.55155050  0.24090553  0.50314341     0.11400
H823        H  0.54630271  0.21948216  0.57540874     0.07700
C824        C  0.51436839  0.18850541  0.63394879    -0.11400
C825        C  0.51277770  0.17828793  0.67719403    -0.10700
C826        C  0.49724998  0.19132191  0.70968509    -0.01600
C827        C  0.48272731  0.21428466  0.69754871    -0.11800
C828        C  0.48419070  0.22436218  0.65432988    -0.10200
H829        H  0.52676485  0.17833508  0.60969918     0.07700
H830        H  0.52428553  0.16061063  0.68545398     0.11400
H831        H  0.47067196  0.22490675  0.72174250     0.11100
H832        H  0.47340508  0.24252485  0.64634486     0.07700
C833        C  0.85475253  0.89011438  0.73640966    -0.11400
C834        C  0.85835559  0.87965176  0.69352919     0.05700
C835        C  0.84471181  0.89154289  0.65771145    -0.10200
C836        C  0.82895547  0.91443232  0.66439880    -0.11800
C837        C  0.82727747  0.92604601  0.70673863    -0.01600
C838        C  0.83966496  0.91331627  0.74283872    -0.10700
C839        C  0.88002206  0.85990590  0.68586146     0.05700
H840        H  0.84737157  0.88391969  0.62432128     0.07600
H841        H  0.81973566  0.92413112  0.63610053     0.11100
H842        H  0.83870186  0.92209224  0.77572413     0.11400
H843        H  0.86535690  0.88157302  0.76443018     0.07700
C844        C  0.90144289  0.86687739  0.65786528    -0.11400
C845        C  0.92524552  0.85222607  0.65875911    -0.10700
C846        C  0.92784006  0.82988950  0.68674671    -0.01600
C847        C  0.90564288  0.82143580  0.71181903    -0.11800
C848        C  0.88198567  0.83658521  0.71187612    -0.10200
H849        H  0.90056907  0.88493314  0.63797878     0.07700
H850        H  0.94215454  0.85913874  0.63925955     0.11400
H851        H  0.90731307  0.80441481  0.73395893     0.11100
H852        H  0.86576894  0.83094092  0.73392494     0.07700
C853        C  0.66917311  0.06124623  0.76169759    -0.11400
C854        C  0.66848828  0.08935358  0.76118931     0.05700
C855        C  0.69146231  0.10341687  0.74782049    -0.10200
C856        C  0.71457813  0.08972065  0.73512012    -0.11800
C857        C  0.71524467  0.06160679  0.73536892    -0.01600
C858        C  0.69229052  0.04752139  0.74887748    -0.10700
C859        C  0.64396786  0.10393610  0.77490573     0.05700
H860        H  0.69146430  0.12505599  0.74653002     0.07600
H861        H  0.73186141  0.10122009  0.72475004     0.11100
H862        H  0.69214642  0.02586289  0.74953129     0.11400
H863        H  0.65193481  0.04984135  0.77253103     0.07700
C864        C  0.61856375  0.09429509  0.76315396    -0.11400
C865        C  0.59545622  0.10733669  0.77769479    -0.10700
C866        C  0.59721530  0.13036507  0.80430465    -0.01600
C867        C  0.62262828  0.14044359  0.81501444    -0.11800
C868        C  0.64575424  0.12735618  0.80050221    -0.10200
H869        H  0.61652754  0.07658181  0.74278091     0.07700
H870        H  0.57619884  0.09901676  0.76878717     0.11400
H871        H  0.62468533  0.15806088  0.83560786     0.11100
H872        H  0.66503579  0.13514131  0.81048275     0.07700
C873        C  0.61751783  0.89181246  0.24153297    -0.11400
C874        C  0.61589359  0.87903879  0.20012601     0.05700
C875        C  0.63072131  0.88942004  0.16412269    -0.10200
C876        C  0.64599359  0.91280710  0.16918123    -0.11800
C877        C  0.64602948  0.92641250  0.20998617    -0.01600
C878        C  0.63218943  0.91532629  0.24627365    -0.10700
C879        C  0.59582222  0.85746699  0.19400715     0.05700
H880        H  0.62969737  0.87998468  0.13180941     0.07600
H881        H  0.65631399  0.92114213  0.14064454     0.11100
H882        H  0.63187282  0.92550531  0.27803996     0.11400
H883        H  0.60599365  0.88458135  0.26965522     0.07700
C884        C  0.59279423  0.83718146  0.22615018    -0.11400
C885        C  0.56996710  0.82091772  0.22643411    -0.10700
C886        C  0.54970074  0.82500978  0.19501418    -0.01600
C887        C  0.55353876  0.84395957  0.16113417    -0.11800
C888        C  0.57657235  0.85982181  0.16027507    -0.10200
H889        H  0.60733077  0.83498843  0.25254022     0.07700
H890        H  0.56715440  0.80668207  0.25323590     0.11400
H891        H  0.53794567  0.84756916  0.13689218     0.11100
H892        H  0.57819994  0.87545950  0.13544998     0.07700
C893        C  0.59584451  0.11978819  0.30392057    -0.11400
C894        C  0.60607545  0.14517862  0.29340857     0.05700
C895        C  0.63019049  0.14686021  0.26926310    -0.10200
C896        C  0.64344412  0.12370303  0.25510907    -0.11800
C897        C  0.63289826  0.09830353  0.26484328    -0.01600
C898        C  0.60908675  0.09666339  0.28985488    -0.10700
C899        C  0.59150605  0.16980516  0.30710404     0.05700
H900        H  0.63845513  0.16613430  0.26021626     0.07600
H901        H  0.66156540  0.12573052  0.23558632     0.11100
H902        H  0.60034190  0.07743499  0.29798743     0.11400
H903        H  0.57756167  0.11778955  0.32305267     0.07700
C904        C  0.56342319  0.17130300  0.30425938    -0.11400
C905        C  0.54981744  0.19462601  0.31670278    -0.10700
C906        C  0.56400359  0.21700335  0.33220924    -0.01600
C907        C  0.59207026  0.21541738  0.33512704    -0.11800
C908        C  0.60562786  0.19212895  0.32279456    -0.10200
H909        H  0.55197384  0.15455274  0.29178369     0.07700
H910        H  0.52821869  0.19515872  0.31397948     0.11400
H911        H  0.60365228  0.23214196  0.34738729     0.11100
H912        H  0.62718950  0.19148758  0.32606001     0.07700
C913        C  0.55505555  0.05877408  0.97410304    -0.11400
C914        C  0.54642021  0.06369531  0.01785945     0.05700
C915        C  0.52666677  0.08327752  0.02520590    -0.10200
C916        C  0.51833536  0.09990364  0.99057444    -0.11800
C917        C  0.52910049  0.09674817  0.94791556    -0.01600
C918        C  0.54645832  0.07529423  0.93929241    -0.10700
C919        C  0.56217230  0.05339116  0.05597501     0.05700
H920        H  0.51950541  0.08729611  0.05854216     0.07600
H921        H  0.50510800  0.11652874  0.99781297     0.11100
H922        H  0.55524283  0.07286986  0.90656315     0.11400
H923        H  0.57043048  0.04400926  0.96752885     0.07700
C924        C  0.57078151  0.02660358  0.05874451    -0.11400
C925        C  0.58895361  0.01872573  0.09195793    -0.10700
C926        C  0.59906545  0.03775231  0.12179591    -0.01600
C927        C  0.58977426  0.06412873  0.11974355    -0.11800
C928        C  0.57146764  0.07181678  0.08750096    -0.10200
H929        H  0.56406258  0.01208264  0.03460525     0.07700
H930        H  0.59617155  0.99831727  0.09281252     0.11400
H931        H  0.59748590  0.07911540  0.14232058     0.11100
H932        H  0.56577156  0.09269676  0.08569196     0.07700
C933        C  0.74132999  0.98558642  0.90875702    -0.11400
C934        C  0.75752978  0.99354433  0.94428253     0.05700
C935        C  0.78452548  0.99987737  0.93613846    -0.10200
C936        C  0.79471465  0.99951027  0.89262227    -0.11800
C937        C  0.77806870  0.99257061  0.85678594    -0.01600
C938        C  0.75144524  0.98504809  0.86565709    -0.10700
C939        C  0.74542248  0.99680457  0.98888399     0.05700
H940        H  0.79737645  0.00615293  0.96309361     0.07600
H941        H  0.81529066  0.00538441  0.88692594     0.11100
H942        H  0.73799650  0.97943214  0.83903824     0.11400
H943        H  0.72057196  0.98022989  0.91427432     0.07700
C944        C  0.72086756  0.01024701  0.99312384    -0.11400
C945        C  0.70893635  0.01349440  0.03465625    -0.10700
C946        C  0.72120600  0.00323211  0.07298400    -0.01600
C947        C  0.74565830  0.98945914  0.06882078    -0.11800
C948        C  0.75780339  0.98646942  0.02708071    -0.10200
H949        H  0.71105397  0.01866705  0.96420634     0.07700
H950        H  0.69016605  0.02425923  0.03678974     0.11400
H951        H  0.75570317  0.98159330  0.09791146     0.11100
H952        H  0.77668512  0.97594102  0.02455387     0.07700
C953        C  0.68659802  0.01359070  0.43409205    -0.11400
C954        C  0.70747385  0.99660194  0.44751559     0.05700
C955        C  0.71789060  0.97803728  0.41714244    -0.10200
C956        C  0.70854321  0.97738801  0.37342091    -0.11800
C957        C  0.68834636  0.99508754  0.35937410    -0.01600
C958        C  0.67696840  0.01269815  0.39052473    -0.10700
C959        C  0.71991762  0.99973445  0.49177072     0.05700
H960        H  0.73413092  0.96488474  0.42666691     0.07600
H961        H  0.71768318  0.96352657  0.35028481     0.11100
H962        H  0.66141756  0.02660745  0.38076169     0.11400
H963        H  0.67816636  0.02797011  0.45708949     0.07700
C964        C  0.72804182  0.02513907  0.50599044    -0.11400
C965        C  0.74141109  0.02822369  0.54629369    -0.10700
C966        C  0.74674635  0.00599078  0.57359412    -0.01600
C967        C  0.73813976  0.98057487  0.55972363    -0.11800
C968        C  0.72503971  0.97745695  0.51895275    -0.10200
H969        H  0.72458950  0.04257312  0.48536561     0.07700
H970        H  0.74751321  0.04813613  0.55609366     0.11400
H971        H  0.74170974  0.96310786  0.58014918     0.11100
H972        H  0.71885174  0.95767665  0.50863764     0.07700
C973        C  0.09230220  0.34269758  0.82297143    -0.11400
C974        C  0.09699893  0.35765567  0.86176127     0.05700
C975        C  0.08079454  0.35286776  0.89933932    -0.10200
C976        C  0.05867368  0.33588211  0.89673149    -0.11800
C977        C  0.05263685  0.32292622  0.85683270    -0.01600
C978        C  0.07013800  0.32556057  0.82047537    -0.10700
C979        C  0.11517843  0.38126952  0.86087393     0.05700
H980        H  0.08415332  0.36369912  0.92995559     0.07600
H981        H  0.04517376  0.33438719  0.92488613     0.11100
H982        H  0.06550165  0.31598436  0.78914590     0.11400
H983        H  0.10427406  0.34597843  0.79339795     0.07700
C984        C  0.13998123  0.38105858  0.83833921    -0.11400
C985        C  0.15508850  0.40468527  0.83407773    -0.10700
C986        C  0.14527319  0.42883468  0.85154126    -0.01600
C987        C  0.12102742  0.42873142  0.87510120    -0.11800
C988        C  0.10624182  0.40535344  0.87977096    -0.10200
H989        H  0.14736845  0.36282926  0.82331998     0.07700
H990        H  0.17362491  0.40437910  0.81532039     0.11400
H991        H  0.11299066  0.44711054  0.88875393     0.11100
H992        H  0.08701994  0.40653362  0.89638035     0.07700
C993        C  0.87209148  0.19059486  0.82284273    -0.11400
C994        C  0.88508543  0.16666504  0.81140131     0.05700
C995        C  0.91322568  0.16602299  0.81094342    -0.10200
C996        C  0.92806519  0.18888115  0.82139833    -0.11800
C997        C  0.91507530  0.21280007  0.83310396    -0.01600
C998        C  0.88690138  0.21334810  0.83382877    -0.10700
C999        C  0.86940398  0.14266762  0.79859250     0.05700
H1000       H  0.92376567  0.14792196  0.80174441     0.07600
H1001       H  0.94970814  0.18773635  0.82075539     0.11100
H1002       H  0.87624255  0.23142976  0.84275185     0.11400
H1003       H  0.85043661  0.19162464  0.82369752     0.07700
C1004       C  0.87642020  0.11721879  0.81462461    -0.11400
C1005       C  0.86283818  0.09442004  0.79997650    -0.10700
C1006       C  0.84211803  0.09654463  0.76855979    -0.01600
C1007       C  0.83452484  0.12214023  0.75375386    -0.11800
C1008       C  0.84793293  0.14493653  0.76875592    -0.10200
H1009       H  0.89265746  0.11493960  0.83812550     0.07700
H1010       H  0.86919541  0.07505243  0.81214686    -0.11000
H1011       H  0.81864794  0.12453972  0.72963211     0.11100
H1012       H  0.84216727  0.16427559  0.75569724     0.07700
C1013       C  0.07907646  0.11775136  0.40592450    -0.11400
C1014       C  0.09387834  0.10989008  0.36823773     0.05700
C1015       C  0.08576890  0.11902862  0.32615971    -0.10200
C1016       C  0.06246482  0.13428707  0.32155392    -0.11800
C1017       C  0.04712429  0.14107900  0.35896138    -0.01600
C1018       C  0.05589091  0.13330944  0.40130448    -0.10700
C1019       C  0.11485416  0.08890517  0.37151739     0.05700
H1020       H  0.09643351  0.11283935  0.29648954     0.07600
H1021       H  0.05570092  0.13973819  0.28856694     0.11100
H1022       H  0.04405300  0.13806540  0.43046841     0.11400
H1023       H  0.08481476  0.11087298  0.43869084     0.07700
C1024       C  0.13888206  0.09065271  0.34701955    -0.11400
C1025       C  0.15579784  0.06833396  0.34294705    -0.10700
C1026       C  0.14854899  0.04390986  0.36257477    -0.01600
C1027       C  0.12555935  0.04279310  0.38951619    -0.11800
C1028       C  0.10902083  0.06507966  0.39423975    -0.10200
H1029       H  0.14384421  0.10883820  0.32928351     0.07700
H1030       H  0.17330511  0.06957293  0.32172295     0.11400
H1031       H  0.11954450  0.02411698  0.40487599     0.11100
H1032       H  0.09054879  0.06300313  0.41291872     0.07700
C1033       C  0.85131326  0.10874692  0.24465131    -0.11400
C1034       C  0.83041772  0.10260790  0.27440869     0.05700
C1035       C  0.83268574  0.11054765  0.31893779    -0.10200
C1036       C  0.85548292  0.12399350  0.33375530    -0.11800
C1037       C  0.87683385  0.12944441  0.30445763    -0.01600
C1038       C  0.87444038  0.12178710  0.25968110    -0.10700
C1039       C  0.80654637  0.08739186  0.25958314     0.05700
H1040       H  0.81672108  0.10625353  0.34246807     0.07600
H1041       H  0.85667972  0.12944237  0.36839256     0.11100
H1042       H  0.89056484  0.12570238  0.23629288     0.11400
H1043       H  0.85005310  0.10279129  0.21023320     0.07700
C1044       C  0.79203987  0.09542428  0.22197610    -0.11400
C1045       C  0.76896594  0.08155146  0.20917165    -0.10700
C1046       C  0.76020022  0.05900474  0.23331113    -0.01600
C1047       C  0.77510922  0.05068639  0.27036978    -0.11800
C1048       C  0.79787731  0.06485649  0.28363218    -0.10200
H1049       H  0.79827555  0.11282797  0.20297377     0.07700
H1050       H  0.75805278  0.08841731  0.18037571     0.11400
H1051       H  0.76888229  0.03339368  0.28972803     0.11100
H1052       H  0.80881484  0.05816364  0.31250615     0.07700
C1053       C  0.88159376  0.03995991  0.53596893    -0.11400
C1054       C  0.90763747  0.04745724  0.54823644     0.05700
C1055       C  0.91549699  0.04436460  0.59283253    -0.10200
C1056       C  0.89701828  0.03604768  0.62514355    -0.11800
C1057       C  0.87031121  0.03112069  0.61327481    -0.01600
C1058       C  0.86312006  0.03203996  0.56821292    -0.10700
C1059       C  0.92418901  0.06298970  0.51631553     0.05700
H1060       H  0.93556898  0.04993989  0.60314170     0.07600
H1061       H  0.90301977  0.03558359  0.65964191     0.11100
H1062       H  0.84256936  0.02819514  0.55816202     0.11400
H1063       H  0.87480469  0.04239408  0.50210196     0.07700
C1064       C  0.92516463  0.05608640  0.47102515    -0.11400
C1065       C  0.93437200  0.07446227  0.43930481    -0.10700
C1066       C  0.94239100  0.10015403  0.45250444    -0.01600
C1067       C  0.94377486  0.10605377  0.49806545    -0.11800
C1068       C  0.93489693  0.08764452  0.52968485    -0.10200
H1069       H  0.91715980  0.03703639  0.45984901     0.07700
H1070       H  0.93310282  0.06939762  0.40444161     0.11400
H1071       H  0.95011290  0.12573797  0.50919938     0.11100
H1072       H  0.93422698  0.09367921  0.56419567     0.07700
C1073       C  0.99507232  0.22687247  0.15590285    -0.11400
C1074       C  0.98406385  0.21193462  0.12110913     0.05700
C1075       C  0.97345471  0.18647825  0.13017936    -0.10200
C1076       C  0.97280445  0.17667828  0.17389673    -0.11800
C1077       C  0.98286182  0.19219527  0.20904464    -0.01600
C1078       C  0.99455684  0.21711392  0.19927626    -0.10700
C1079       C  0.98191627  0.22405124  0.07638615     0.05700
H1080       H  0.96467884  0.17471089  0.10378947     0.07600
H1081       H  0.96359167  0.15746755  0.18036547     0.11100
H1082       H  0.00277907  0.22950357  0.22541210     0.11400
H1083       H  0.00360667  0.24642154  0.14959096     0.07700
C1084       C  0.97082767  0.24969620  0.07192943    -0.11400
C1085       C  0.96802490  0.26135088  0.03010512    -0.10700
C1086       C  0.97666560  0.24780002  0.99183608    -0.01600
C1087       C  0.98833829  0.22236044  0.99620275    -0.11800
C1088       C  0.99066243  0.21041448  0.03822163    -0.10200
H1089       H  0.96374164  0.26050437  0.10087398     0.07700
H1090       H  0.95884329  0.28091346  0.02760428     0.11400
H1091       H  0.99477930  0.21138287  0.96705841     0.11100
H1092       H  0.99931723  0.19063577  0.04099032     0.07700
C1093       C  0.00144199  0.25261098  0.64672129    -0.11400
C1094       C  0.98411836  0.26456638  0.61594805     0.05700
C1095       C  0.96817399  0.28626968  0.62933356    -0.10200
C1096       C  0.96859023  0.29501357  0.67340835    -0.11800
C1097       C  0.98463159  0.28187499  0.70491686    -0.01600
C1098       C  0.00157086  0.26106718  0.69089724    -0.10700
C1099       C  0.98040368  0.25234216  0.57176498     0.05700
H1100       H  0.95475665  0.29585460  0.60599242     0.07600
H1101       H  0.95537217  0.31114078  0.68326471     0.11100
H1102       H  0.01433142  0.25075537  0.71440565     0.11400
H1103       H  0.01376667  0.23572933  0.63718449     0.07700
C1104       C  0.00241791  0.24523606  0.54511153    -0.11400
C1105       C  0.99851728  0.23176012  0.50487914    -0.10700
C1106       C  0.97254921  0.22481734  0.49116628    -0.01600
C1107       C  0.95062496  0.23217137  0.51793037    -0.11800
C1108       C  0.95450886  0.24587012  0.55762366    -0.10200
H1109       H  0.02258771  0.25004727  0.55553196     0.07700
H1110       H  0.01576909  0.22653977  0.48483126     0.11400
H1111       H  0.93033007  0.22732912  0.50826377     0.11100
H1112       H  0.93726159  0.25075717  0.57796746     0.07700
C1113       C  0.90346417  0.61667945  0.14565291    -0.11400
C1114       C  0.88663553  0.61181483  0.18237475     0.05700
C1115       C  0.89089991  0.62631682  0.22175385    -0.10200
C1116       C  0.91275048  0.64378153  0.22533881    -0.11800
C1117       C  0.93050511  0.64717017  0.18951171    -0.01600
C1118       C  0.92529326  0.63405382  0.14931337    -0.10700
C1119       C  0.86799102  0.58862303  0.18213483     0.05700
H1120       H  0.87858131  0.62261619  0.25082309     0.07600
H1121       H  0.91686086  0.65317549  0.25702024     0.11100
H1122       H  0.93903350  0.63604634  0.12158240     0.11400
H1123       H  0.90063514  0.60583000  0.11491939     0.07700
C1124       C  0.84206212  0.59015686  0.20055303    -0.11400
C1125       C  0.82650091  0.56693642  0.20597366    -0.10700
C1126       C  0.83701798  0.54188629  0.19411186    -0.01600
C1127       C  0.86230463  0.54065498  0.17375033    -0.11800
C1128       C  0.87749822  0.56371408  0.16753030    -0.10200
H1129       H  0.83424035  0.60913657  0.21196803     0.07700
H1130       H  0.80706253  0.56833484  0.22184579     0.11400
H1131       H  0.87079519  0.52157028  0.16413407     0.11100
H1132       H  0.89745217  0.56177811  0.15370516     0.07700
C1133       C  0.64194844  0.36628835  0.31740141    -0.11400
C1134       C  0.64460728  0.37349892  0.27257764     0.05700
C1135       C  0.62447821  0.36618057  0.24236504    -0.10200
C1136       C  0.60169179  0.35240548  0.25716428    -0.11800
C1137       C  0.59911257  0.34521050  0.30215756    -0.01600
C1138       C  0.61958116  0.35213498  0.33195965    -0.10700
C1139       C  0.66862094  0.38837308  0.25788880     0.05700
H1140       H  0.62616914  0.37157615  0.20757770     0.07600
H1141       H  0.58616513  0.34737495  0.23357057     0.11100
H1142       H  0.61803430  0.34713840  0.36693353     0.11400
H1143       H  0.65733695  0.37145964  0.34118171     0.07700
C1144       C  0.67727819  0.41094501  0.28160226    -0.11400
C1145       C  0.70091537  0.42406715  0.26960223    -0.10700
C1146       C  0.71656388  0.41452210  0.23419828    -0.01600
C1147       C  0.70773175  0.39207786  0.21023151    -0.11800
C1148       C  0.68384118  0.37927249  0.22172025    -0.10200
H1149       H  0.66574241  0.41836896  0.30952602     0.07700
H1150       H  0.70721758  0.44134909  0.28852278     0.11400
H1151       H  0.71925627  0.38448264  0.18243187     0.11100
H1152       H  0.67762957  0.36181817  0.20316576     0.07700
C1153       C  0.86980364  0.27788352  0.32236677    -0.11400
C1154       C  0.88325862  0.30191385  0.31319807     0.05700
C1155       C  0.91137980  0.30237980  0.31576490    -0.10200
C1156       C  0.92569856  0.27930273  0.32705947    -0.11800
C1157       C  0.91221720  0.25523666  0.33614748    -0.01600
C1158       C  0.88408409  0.25485413  0.33374461    -0.10700
C1159       C  0.86808202  0.32625950  0.30011770     0.05700
H1160       H  0.92236549  0.32049933  0.30831263     0.07600
H1161       H  0.94733435  0.28034498  0.32869696     0.11100
H1162       H  0.87299867  0.23673305  0.34075405     0.11400
H1163       H  0.84816799  0.27694355  0.32119886     0.07700
C1164       C  0.84633345  0.32451900  0.27066802    -0.11400
C1165       C  0.83324343  0.34761741  0.25593735    -0.10700
C1166       C  0.84158231  0.37299844  0.27040329    -0.01600
C1167       C  0.86261106  0.37460044  0.30130488    -0.11800
C1168       C  0.87572093  0.35153030  0.31590668    -0.10200
H1169       H  0.84007570  0.30535432  0.25763490     0.07700
H1170       H  0.81722536  0.34562078  0.23199959     0.11400
H1171       H  0.86957749  0.39379235  0.31321389     0.11100
H1172       H  0.89206632  0.35350082  0.33922619     0.07700
C1173       C  0.88631955  0.42753816  0.03652501    -0.11400
C1174       C  0.91248461  0.42017461  0.04845531     0.05700
C1175       C  0.92041580  0.42280851  0.09308749    -0.10200
C1176       C  0.90194960  0.43077216  0.12561476    -0.11800
C1177       C  0.87521346  0.43572020  0.11400728    -0.01600
C1178       C  0.86782089  0.43501256  0.06903653    -0.10700
C1179       C  0.92928513  0.40537447  0.01602283     0.05700
H1180       H  0.94049260  0.41733594  0.10311472     0.07600
H1181       H  0.90805817  0.43116189  0.16011609     0.11100
H1182       H  0.84731354  0.43895928  0.05929471     0.11400
H1183       H  0.87950056  0.42545590  0.00256934     0.07700
C1184       C  0.94040320  0.38067318  0.02850411    -0.11400
C1185       C  0.94950182  0.36283605  0.99621572    -0.10700
C1186       C  0.94815027  0.36958206  0.95100602    -0.01600
C1187       C  0.93979153  0.39531749  0.93869200    -0.11800
C1188       C  0.93018535  0.41304344  0.97100053    -0.10200
H1189       H  0.93977264  0.37407814  0.06279312     0.07700
H1190       H  0.95585069  0.34300643  0.00631942     0.11400
H1191       H  0.93837616  0.40078567  0.90393462     0.11100
H1192       H  0.92184483  0.43202640  0.96053545     0.07700
C1193       C  0.61940453  0.57584092  0.73924247    -0.11400
C1194       C  0.61451114  0.58522422  0.69602114     0.05700
C1195       C  0.62758727  0.57302748  0.65992461    -0.10200
C1196       C  0.64454656  0.55110472  0.66691123    -0.11800
C1197       C  0.64802085  0.54079317  0.70989446    -0.01600
C1198       C  0.63575819  0.55357265  0.74606230    -0.10700
C1199       C  0.59286111  0.60488917  0.68878827     0.05700
H1200       H  0.62380382  0.57979180  0.62631809     0.07600
H1201       H  0.65346661  0.54111725  0.63858634     0.11100
H1202       H  0.63788573  0.54554836  0.77935613     0.11400
H1203       H  0.60912475  0.58464205  0.76743992     0.07700
C1204       C  0.57024461  0.59731266  0.66436170    -0.11400
C1205       C  0.54717009  0.61305617  0.66520652    -0.10700
C1206       C  0.54648419  0.63694497  0.68972549    -0.01600
C1207       C  0.56979295  0.64561119  0.71127452    -0.11800
C1208       C  0.59274622  0.62947277  0.71133614    -0.10200
H1209       H  0.56978892  0.57828229  0.64722131     0.07700
H1210       H  0.52938511  0.60592669  0.64845746     0.11400
H1211       H  0.56961093  0.66379449  0.73079936     0.11100
H1212       H  0.60997195  0.63553811  0.73059023     0.07700
C1213       C  0.57368262  0.28876627  0.77663765    -0.11400
C1214       C  0.59303515  0.30038259  0.80444695     0.05700
C1215       C  0.59738488  0.28909711  0.84666170    -0.10200
C1216       C  0.58280906  0.26665466  0.86067071    -0.11800
C1217       C  0.56307737  0.25538879  0.83324164    -0.01600
C1218       C  0.55866176  0.26670446  0.79106028    -0.10700
C1219       C  0.60841335  0.32434286  0.78965036     0.05700
H1220       H  0.61228840  0.29749124  0.86865519     0.07600
H1221       H  0.58665091  0.25836336  0.89334828     0.11100
H1222       H  0.54376806  0.25831272  0.76905393     0.11400
H1223       H  0.56981232  0.29708976  0.74401138     0.07700
C1224       C  0.61990078  0.32538361  0.74697747    -0.11400
C1225       C  0.63391327  0.34811384  0.73274409    -0.10700
C1226       C  0.63650144  0.37054663  0.76060935    -0.01600
C1227       C  0.62511103  0.36941206  0.80343857    -0.11800
C1228       C  0.61140473  0.34651612  0.81786810    -0.10200
H1229       H  0.61808883  0.30854386  0.72462732     0.07700
H1230       H  0.64222004  0.34831445  0.69943911     0.11400
H1231       H  0.62650496  0.38634669  0.82566735     0.11100
H1232       H  0.60255190  0.34638222  0.85079500     0.07700
C1233       C  0.54314281  0.38072783  0.53412192    -0.11400
C1234       C  0.55117803  0.40675945  0.52274634     0.05700
C1235       C  0.54837134  0.41525949  0.47832676    -0.10200
C1236       C  0.54042763  0.39721315  0.44528482    -0.11800
C1237       C  0.53538359  0.37037882  0.45619559    -0.01600
C1238       C  0.53544491  0.36272280  0.50120013    -0.10700
C1239       C  0.56743292  0.42236182  0.55487398     0.05700
H1240       H  0.55408947  0.43532642  0.46871554     0.07600
H1241       H  0.54033583  0.40371088  0.41091640     0.11100
H1242       H  0.53122357  0.34225761  0.51069821     0.11400
H1243       H  0.54515900  0.37344162  0.56787555     0.07700
C1244       C  0.56145044  0.42216926  0.60066124    -0.11400
C1245       C  0.58063090  0.43035739  0.63170957    -0.10700
C1246       C  0.60615697  0.43851979  0.61740908    -0.01600
C1247       C  0.61118740  0.44098661  0.57165600    -0.11800
C1248       C  0.59199155  0.43315760  0.54073951    -0.10200
H1249       H  0.54261383  0.41413204  0.61251936     0.07700
H1250       H  0.57624801  0.42825385  0.66684335     0.11400
H1251       H  0.63062876  0.44740945  0.55975164     0.11100
H1252       H  0.59739702  0.43335180  0.50585501     0.07700
C1253       C  0.78581262  0.36455290  0.74335926    -0.11400
C1254       C  0.80917907  0.37823785  0.75571802     0.05700
C1255       C  0.80886864  0.40635055  0.75610981    -0.10200
C1256       C  0.78588985  0.42046578  0.74382405    -0.11800
C1257       C  0.76261977  0.40682196  0.73081470    -0.01600
C1258       C  0.76281480  0.37866982  0.73099570    -0.10700
C1259       C  0.83379344  0.36343146  0.76859516     0.05700
H1260       H  0.82636370  0.41748293  0.76636751     0.07600
H1261       H  0.78642810  0.44211359  0.74437705     0.11100
H1262       H  0.74524420  0.36748343  0.72127840     0.11400
H1263       H  0.78544128  0.34291166  0.74250426     0.07700
C1264       C  0.83229075  0.34048088  0.79553423    -0.11400
C1265       C  0.85562810  0.32797921  0.81063932    -0.10700
C1266       C  0.88098131  0.33809546  0.79900143    -0.01600
C1267       C  0.88242619  0.36028074  0.77035004    -0.11800
C1268       C  0.85912141  0.37279692  0.75537902    -0.10200
H1269       H  0.81309472  0.33279911  0.80639679     0.07700
H1270       H  0.85377983  0.31084965  0.83251289     0.11400
H1271       H  0.90159822  0.36853584  0.76052104     0.11100
H1272       H  0.86093537  0.39008181  0.73384619     0.07700
C1273       C  0.69407143  0.47244492  0.93739103    -0.11400
C1274       C  0.72127821  0.47796774  0.94476473     0.05700
C1275       C  0.73801463  0.48348439  0.90850525    -0.10200
C1276       C  0.72814398  0.48244873  0.86548502    -0.11800
C1277       C  0.70121073  0.47584999  0.85751304    -0.01600
C1278       C  0.68408956  0.47129352  0.89393976    -0.10700
C1279       C  0.73308754  0.47584329  0.98946315     0.05700
H1280       H  0.75899284  0.48809281  0.91345137     0.07600
H1281       H  0.74195834  0.48623713  0.83835420     0.11100
H1282       H  0.66323940  0.46627016  0.88884555     0.11400
H1283       H  0.68086458  0.46798027  0.96503223     0.07700
C1284       C  0.72118238  0.48817422  0.02647334    -0.11400
C1285       C  0.73280793  0.48559060  0.06855152    -0.10700
C1286       C  0.75615831  0.47026715  0.07399218    -0.01600
C1287       C  0.76812770  0.45830577  0.03677529    -0.11800
C1288       C  0.75674474  0.46110085  0.99498671    -0.10200
H1289       H  0.70299704  0.49974867  0.02277863     0.07700
H1290       H  0.72311889  0.49477653  0.09693124     0.11400
H1291       H  0.78615045  0.44640765  0.04008441     0.11100
H1292       H  0.76614918  0.45118803  0.96699538     0.07700
C1293       C  0.74890000  0.50044741  0.51813019    -0.11400
C1294       C  0.76020453  0.47910278  0.49411615     0.05700
C1295       C  0.75805210  0.45310734  0.51136193    -0.10200
C1296       C  0.74428257  0.44833452  0.55098074    -0.11800
C1297       C  0.73259637  0.46948033  0.57479177    -0.01600
C1298       C  0.73548203  0.49571249  0.55845716    -0.10700
C1299       C  0.77225174  0.48309233  0.44941473     0.05700
H1300       H  0.76626231  0.43624457  0.49333159     0.07600
H1301       H  0.74279276  0.42797313  0.56301653     0.11100
H1302       H  0.72689630  0.51243766  0.57632499     0.11400
H1303       H  0.75031931  0.52069499  0.50555747     0.07700
C1304       C  0.75831529  0.49749755  0.41677628    -0.11400
C1305       C  0.76686938  0.49700073  0.37247242    -0.10700
C1306       C  0.78972220  0.48229420  0.35989320    -0.01600
C1307       C  0.80468902  0.46942795  0.39314625    -0.11800
C1308       C  0.79597066  0.46972961  0.43741367    -0.10200
H1309       H  0.73989126  0.50781203  0.42501514     0.07700
H1310       H  0.75495401  0.50731985  0.34780034     0.11400
H1311       H  0.82243633  0.45803297  0.38468674     0.11100
H1312       H  0.80721774  0.45866577  0.46207509     0.07700
loop_ 
_geom_bond_atom_site_label_1 
_geom_bond_atom_site_label_2 
_geom_bond_distance 
_geom_bond_site_symmetry_2 
_ccdc_geom_bond_type 
Fe1          O17   2.037       .  S
Fe1           O7   2.096       .  S
Fe1          O14   2.079       .  S
Fe1           O6   2.056       .  S
Fe1          O12   1.966       .  S
Fe2           O5   2.062       .  S
Fe2           O9   2.080       .  S
Fe2          O13   2.052       .  S
Fe2          O18   2.098       .  S
Fe2          O12   1.970       .  S
Fe3          O21   2.079       .  S
Fe3           O8   2.052       .  S
Fe3          O15   2.055       .  S
Fe3           O4   2.075       .  S
Fe3          O12   1.957       .  S
O4           C11   1.267       .  A
O5           C19   1.265       .  A
O6           C11   1.262       .  A
O7           C10   1.280       .  A
O8           C20   1.274       .  A
O9           C22   1.272       .  A
C10          O15   1.274       .  A
C10        C1257   1.485       .  S
C11        C1297   1.482       .  S
O13          C16   1.267       .  A
O14          C16   1.271       .  A
C16        C1197   1.467       .  S
O17          C22   1.266       .  A
O18          C20   1.279       .  A
C19          O21   1.268       .  A
C19        C1226   1.490       .  S
C20        C1246   1.477       .  S
C22        C1277   1.478       .  S
Fe23         O39   2.076       .  S
Fe23         O29   2.060       .  S
Fe23         O36   2.064       .  S
Fe23         O28   2.084       .  S
Fe23         O34   1.990       .  S
Fe24         O27   2.066       .  S
Fe24         O31   2.057       .  S
Fe24         O35   2.037       .  S
Fe24         O40   2.053       .  S
Fe24         O34   1.973       .  S
Fe25         O43   2.058       .  S
Fe25         O30   2.078       .  S
Fe25         O37   2.077       .  S
Fe25         O26   2.050       .  S
Fe25         O34   1.977       .  S
O26          C33   1.266       .  A
O27          C41   1.268       .  A
O28          C33   1.271       .  A
O29          C32   1.268       .  A
O30          C42   1.271       .  A
O31          C44   1.270       .  A
C32          O37   1.272       .  A
C32        C1306   1.486       .  S
C33        C1126   1.478       .  S
O35          C38   1.263       .  A
O36          C38   1.266       .  A
C38        C1286   1.469       .  S
O39          C44   1.273       .  A
O40          C42   1.268       .  A
C41          O43   1.267       .  A
C41        C1166   1.485       .  S
C42        C1177   1.474       .  S
C44        C1146   1.477       .  S
Fe45         O61   2.045       .  S
Fe45         O51   2.101       .  S
Fe45         O58   2.085   1_655  S
Fe45         O50   2.060       .  S
Fe45         O56   1.962       .  S
Fe46         O49   2.068       .  S
Fe46         O53   2.086       .  S
Fe46         O57   2.059   1_655  S
Fe46         O62   2.104       .  S
Fe46         O56   1.964       .  S
Fe47         O65   2.069       .  S
Fe47         O52   2.045       .  S
Fe47         O59   2.049       .  S
Fe47         O48   2.059       .  S
Fe47         O56   1.952       .  S
O48          C55   1.264       .  A
O49          C63   1.266       .  A
O50          C55   1.264       .  A
O51          C54   1.280       .  A
O52          C64   1.272       .  A
O53          C66   1.274       .  A
C54          O59   1.273       .  A
C54        C1157   1.485       .  S
C55        C1106   1.479       .  S
O57          C60   1.268       .  A
O58          C60   1.272       .  A
C60        C1017   1.471       .  S
O61          C66   1.268       .  A
O62          C64   1.280       .  A
C63          O65   1.265       .  A
C63        C1037   1.485       .  S
C64        C1066   1.477       .  S
C66        C1077   1.482       .  S
Fe67         O83   2.080       .  S
Fe67         O73   2.064       .  S
Fe67         O80   2.074       .  S
Fe67         O72   2.079   1_655  S
Fe67         O78   1.987       .  S
Fe68         O71   2.059       .  S
Fe68         O75   2.058       .  S
Fe68         O79   2.047       .  S
Fe68         O84   2.055       .  S
Fe68         O78   1.970       .  S
Fe69         O87   2.063       .  S
Fe69         O74   2.076       .  S
Fe69         O81   2.061       .  S
Fe69         O70   2.058   1_655  S
Fe69         O78   1.983       .  S
O70          C77   1.267       .  A
O71          C85   1.265       .  A
O72          C77   1.270       .  A
O73          C76   1.270       .  A
O74          C86   1.272       .  A
O75          C88   1.269       .  A
C76          O81   1.270       .  A
C76        C1097   1.476       .  S
C77         C977   1.469       .  S
O79          C82   1.265       .  A
O80          C82   1.269       .  A
C82        C1086   1.474       .  S
O83          C88   1.273       .  A
O84          C86   1.269       .  A
C85          O87   1.266       .  A
C85        C1266   1.484       .  S
C86        C1186   1.470       .  S
C88         C997   1.484       .  S
Fe89        O105   2.076   1_565  S
Fe89         O95   2.079       .  S
Fe89        O102   2.075       .  S
Fe89         O94   2.084       .  S
Fe89        O100   1.964   1_565  S
Fe90         O93   2.066       .  S
Fe90         O97   2.072       .  S
Fe90        O101   2.053       .  S
Fe90        O106   2.066       .  S
Fe90        O100   1.955       .  S
Fe91        O109   2.069       .  S
Fe91         O96   2.078       .  S
Fe91        O103   2.063       .  S
Fe91         O92   2.061   1_545  S
Fe91        O100   1.959       .  S
O92          C99   1.267       .  A
O93         C107   1.269       .  A
O94          C99   1.270       .  A
O95          C98   1.274       .  A
O96         C108   1.273       .  A
O97         C110   1.270       .  A
C98         O103   1.273   1_565  A
C98         C957   1.481       .  S
C99         C877   1.477       .  S
O101        C104   1.269       .  A
O102        C104   1.271   1_565  A
C104        C946   1.477       .  S
O105        C110   1.273       .  A
O106        C108   1.272       .  A
C107        O109   1.268       .  A
C107        C897   1.486       .  S
C108        C926   1.469       .  S
C110       C1046   1.486       .  S
Fe111       O127   2.050       .  S
Fe111       O117   2.085   1_565  S
Fe111       O124   2.079       .  S
Fe111       O116   2.061       .  S
Fe111       O122   1.973   1_565  S
Fe112       O115   2.060       .  S
Fe112       O119   2.081       .  S
Fe112       O123   2.057   1_545  S
Fe112       O128   2.096       .  S
Fe112       O122   1.977       .  S
Fe113       O131   2.064       .  S
Fe113       O118   2.048       .  S
Fe113       O125   2.046       .  S
Fe113       O114   2.062       .  S
Fe113       O122   1.964       .  S
O114        C121   1.266       .  A
O115        C129   1.263       .  A
O116        C121   1.265   1_565  A
O117        C120   1.276       .  A
O118        C130   1.273       .  A
O119        C132   1.274   1_545  A
C120        O125   1.270       .  A
C120        C857   1.480       .  S
C121        C966   1.482       .  S
O123        C126   1.266       .  A
O124        C126   1.268       .  A
C126        C837   1.473       .  S
O127        C132   1.270       .  A
O128        C130   1.279       .  A
C129        O131   1.264       .  A
C129       C1006   1.486       .  S
C130       C1057   1.476       .  S
C132        C937   1.483       .  S
Fe133       O149   2.076       .  S
Fe133       O139   2.078       .  S
Fe133       O146   2.083       .  S
Fe133       O138   2.087       .  S
Fe133       O144   1.964       .  S
Fe134       O137   2.061       .  S
Fe134       O141   2.085       .  S
Fe134       O145   2.060       .  S
Fe134       O150   2.076       .  S
Fe134       O144   1.957       .  S
Fe135       O153   2.056       .  S
Fe135       O140   2.069       .  S
Fe135       O147   2.058       .  S
Fe135       O136   2.066       .  S
Fe135       O144   1.967       .  S
O136        C143   1.269       .  A
O137        C151   1.267       .  A
O138        C143   1.272       .  A
O139        C142   1.272       .  A
O140        C152   1.272       .  A
O141        C154   1.275       .  A
C142        O147   1.269       .  A
C142        C826   1.482       .  S
C143        C777   1.476       .  S
O145        C148   1.267       .  A
O146        C148   1.271       .  A
C148        C806   1.486       .  S
O149        C154   1.273       .  A
O150        C152   1.275       .  A
C151        O153   1.265       .  A
C151        C866   1.480       .  S
C152        C917   1.466       .  S
C154       C1217   1.486       .  S
Fe155       O171   2.048       .  S
Fe155       O161   2.104       .  S
Fe155       O168   2.092       .  S
Fe155       O160   2.068       .  S
Fe155       O166   1.962       .  S
Fe156       O159   2.064       .  S
Fe156       O163   2.101       .  S
Fe156       O167   2.049       .  S
Fe156       O172   2.110       .  S
Fe156       O166   1.961       .  S
Fe157       O175   2.056       .  S
Fe157       O162   2.045       .  S
Fe157       O169   2.050       .  S
Fe157       O158   2.053       .  S
Fe157       O166   1.954       .  S
O158        C165   1.263       .  A
O159        C173   1.263       .  A
O160        C165   1.266       .  A
O161        C164   1.281       .  A
O162        C174   1.273       .  A
O163        C176   1.278       .  A
C164        O169   1.273       .  A
C164        C906   1.486       .  S
C165        C817   1.478       .  S
O167        C170   1.266       .  A
O168        C170   1.272       .  A
C170        C757   1.478       .  S
O171        C176   1.269       .  A
O172        C174   1.282       .  A
C173        O175   1.263       .  A
C173       C1137   1.477       .  S
C174       C1237   1.481       .  S
C176        C797   1.490       .  S
Fe177       O193   2.099       .  S
Fe177       O183   2.060       .  S
Fe177       O190   2.072       .  S
Fe177       O182   2.098   1_565  S
Fe177       O188   1.979       .  S
Fe178       O181   2.078       .  S
Fe178       O185   2.048       .  S
Fe178       O189   2.059       .  S
Fe178       O194   2.051       .  S
Fe178       O188   1.961       .  S
Fe179       O197   2.054       .  S
Fe179       O184   2.079       .  S
Fe179       O191   2.071       .  S
Fe179       O180   2.042       .  S
Fe179       O188   1.970       .  S
O180        C187   1.266   1_565  A
O181        C195   1.270       .  A
O182        C187   1.275       .  A
O183        C186   1.268       .  A
O184        C196   1.272       .  A
O185        C198   1.271       .  A
C186        O191   1.270       .  A
C186        C706   1.481       .  S
C187       C1026   1.476       .  S
O189        C192   1.266       .  A
O190        C192   1.268       .  A
C192        C717   1.485       .  S
O193        C198   1.280       .  A
O194        C196   1.270       .  A
C195        O197   1.266       .  A
C195        C657   1.485       .  S
C196        C686   1.475       .  S
C198        C737   1.481       .  S
Fe199       O215   2.056       .  S
Fe199       O205   2.087       .  S
Fe199       O212   2.081   1_565  S
Fe199       O204   2.063       .  S
Fe199       O210   1.975       .  S
Fe200       O203   2.059       .  S
Fe200       O207   2.089       .  S
Fe200       O211   2.055       .  S
Fe200       O216   2.085       .  S
Fe200       O210   1.968       .  S
Fe201       O219   2.069       .  S
Fe201       O206   2.054       .  S
Fe201       O213   2.056       .  S
Fe201       O202   2.068       .  S
Fe201       O210   1.962       .  S
O202        C209   1.267       .  A
O203        C217   1.265       .  A
O204        C209   1.266       .  A
O205        C208   1.276       .  A
O206        C218   1.272       .  A
O207        C220   1.275       .  A
C208        O213   1.272       .  A
C208        C597   1.483       .  S
C209        C697   1.481       .  S
O211        C214   1.266   1_565  A
O212        C214   1.269       .  A
C214        C786   1.477       .  S
O215        C220   1.269       .  A
O216        C218   1.276       .  A
C217        O219   1.267       .  A
C217        C617   1.486       .  S
C218        C637   1.480       .  S
C220        C726   1.484       .  S
Fe221       O237   2.105       .  S
Fe221       O227   2.050       .  S
Fe221       O234   2.068       .  S
Fe221       O226   2.093       .  S
Fe221       O232   1.961       .  S
Fe222       O225   2.073       .  S
Fe222       O229   2.045       .  S
Fe222       O233   2.065       .  S
Fe222       O238   2.051       .  S
Fe222       O232   1.948       .  S
Fe223       O241   2.047       .  S
Fe223       O228   2.098       .  S
Fe223       O235   2.088       .  S
Fe223       O224   2.043       .  S
Fe223       O232   1.956       .  S
O224        C231   1.266       .  A
O225        C239   1.267       .  A
O226        C231   1.274       .  A
O227        C230   1.268       .  A
O228        C240   1.277       .  A
O229        C242   1.272       .  A
C230        O235   1.274       .  A
C230        C577   1.480       .  S
C231       C1206   1.475       .  S
O233        C236   1.266       .  A
O234        C236   1.267       .  A
C236        C566   1.479       .  S
O237        C242   1.280       .  A
O238        C240   1.272       .  A
C239        O241   1.262       .  A
C239        C526   1.479       .  S
C240        C537   1.472       .  S
C242        C626   1.484       .  S
Fe243       O259   2.056       .  S
Fe243       O249   2.100       .  S
Fe243       O256   2.094       .  S
Fe243       O248   2.076       .  S
Fe243       O254   1.958       .  S
Fe244       O247   2.064       .  S
Fe244       O251   2.085       .  S
Fe244       O255   2.051       .  S
Fe244       O260   2.098       .  S
Fe244       O254   1.957       .  S
Fe245       O263   2.071       .  S
Fe245       O250   2.045       .  S
Fe245       O257   2.049       .  S
Fe245       O246   2.053       .  S
Fe245       O254   1.946       .  S
O246        C253   1.264       .  A
O247        C261   1.266       .  A
O248        C253   1.268       .  A
O249        C252   1.281       .  A
O250        C262   1.269       .  A
O251        C264   1.273       .  A
C252        O257   1.273       .  A
C252        C506   1.483       .  S
C253        C586   1.481       .  S
O255        C258   1.268       .  A
O256        C258   1.275       .  A
C258        C886   1.471       .  S
O259        C264   1.269       .  A
O260        C262   1.277       .  A
C261        O263   1.267       .  A
C261        C746   1.477       .  S
C262        C646   1.475       .  S
C264        C557   1.485       .  S
Fe265       O281   2.037       .  S
Fe265       O271   2.117   1_655  S
Fe265       O278   2.098       .  S
Fe265       O270   2.060       .  S
Fe265       O276   1.954   1_655  S
Fe266       O269   2.061       .  S
Fe266       O273   2.088       .  S
Fe266       O277   2.052   1_455  S
Fe266       O282   2.098       .  S
Fe266       O276   1.950       .  S
Fe267       O285   2.081       .  S
Fe267       O272   2.046       .  S
Fe267       O279   2.045       .  S
Fe267       O268   2.075       .  S
Fe267       O276   1.947       .  S
O268        C275   1.267       .  A
O269        C283   1.265       .  A
O270        C275   1.264   1_655  A
O271        C274   1.283       .  A
O272        C284   1.273       .  A
O273        C286   1.275   1_455  A
C274        O279   1.272       .  A
C274        C666   1.489       .  S
C275        C477   1.478       .  S
O277        C280   1.266       .  A
O278        C280   1.274       .  A
C280       C1117   1.473       .  S
O281        C286   1.267       .  A
O282        C284   1.280       .  A
C283        O285   1.268       .  A
C283        C426   1.487       .  S
C284        C446   1.477       .  S
C286        C457   1.478       .  S
Fe287       O303   2.103   1_655  S
Fe287       O293   2.052       .  S
Fe287       O300   2.064       .  S
Fe287       O292   2.087       .  S
Fe287       O298   1.965   1_655  S
Fe288       O291   2.059       .  S
Fe288       O295   2.059       .  S
Fe288       O299   2.061       .  S
Fe288       O304   2.055       .  S
Fe288       O298   1.952       .  S
Fe289       O307   2.065       .  S
Fe289       O294   2.086       .  S
Fe289       O301   2.089       .  S
Fe289       O290   2.051   1_455  S
Fe289       O298   1.961       .  S
O290        C297   1.265       .  A
O291        C305   1.265       .  A
O292        C297   1.270       .  A
O293        C296   1.271       .  A
O294        C306   1.276       .  A
O295        C308   1.271       .  A
C296        O301   1.277   1_655  A
C296        C486   1.483       .  S
C297        C846   1.476       .  S
O299        C302   1.266       .  A
O300        C302   1.266   1_655  A
C302        C466   1.474       .  S
O303        C308   1.278       .  A
O304        C306   1.273       .  A
C305        O307   1.266       .  A
C305        C606   1.482       .  S
C306        C677   1.475       .  S
C308        C406   1.479       .  S
Fe309       O325   2.079       .  S
Fe309       O315   2.071       .  S
Fe309       O322   2.072       .  S
Fe309       O314   2.081       .  S
Fe309       O320   1.963       .  S
Fe310       O313   2.069       .  S
Fe310       O317   2.068       .  S
Fe310       O321   2.063       .  S
Fe310       O326   2.062       .  S
Fe310       O320   1.957       .  S
Fe311       O329   2.067       .  S
Fe311       O316   2.079       .  S
Fe311       O323   2.061       .  S
Fe311       O312   2.063       .  S
Fe311       O320   1.962       .  S
O312        C319   1.267       .  A
O313        C327   1.270       .  A
O314        C319   1.270       .  A
O315        C318   1.272       .  A
O316        C328   1.272       .  A
O317        C330   1.270       .  A
C318        O323   1.272       .  A
C318        C377   1.480       .  S
C319        C766   1.473       .  S
O321        C324   1.271       .  A
O322        C324   1.271       .  A
C324        C357   1.481       .  S
O325        C330   1.272       .  A
O326        C328   1.271       .  A
C327        O329   1.269       .  A
C327        C497   1.485       .  S
C328        C546   1.470       .  S
C330        C417   1.484       .  S
Fe331       O347   2.036       .  S
Fe331       O337   2.102       .  S
Fe331       O344   2.090       .  S
Fe331       O336   2.055       .  S
Fe331       O342   1.970       .  S
Fe332       O335   2.057       .  S
Fe332       O339   2.100       .  S
Fe332       O343   2.041       .  S
Fe332       O348   2.099       .  S
Fe332       O342   1.964       .  S
Fe333       O351   2.075       .  S
Fe333       O338   2.045       .  S
Fe333       O345   2.039       .  S
Fe333       O334   2.069       .  S
Fe333       O342   1.954       .  S
O334        C341   1.268       .  A
O335        C349   1.265       .  A
O336        C341   1.264       .  A
O337        C340   1.278       .  A
O338        C350   1.271       .  A
O339        C352   1.278       .  A
C340        O345   1.269       .  A
C340        C517   1.482       .  S
C341        C386   1.475       .  S
O343        C346   1.264       .  A
O344        C346   1.270       .  A
C346        C986   1.477       .  S
O347        C352   1.268       .  A
O348        C350   1.279       .  A
C349        O351   1.267       .  A
C349        C397   1.479       .  S
C350        C437   1.475       .  S
C352        C366   1.485       .  S
C353        C354   1.406       .  A
C353        C358   1.395       .  A
C353        H363   1.084       .  S
C354        C359   1.482       .  S
C354        C355   1.403       .  A
C355        C356   1.400       .  A
C355        H360   1.083       .  S
C356        C357   1.408       .  A
C356        H361   1.083       .  S
C357        C358   1.404       .  A
C358        H362   1.083       .  S
C359        C364   1.400       .  A
C359        C368   1.407       .  A
C364        C365   1.391       .  A
C364        H369   1.083       .  S
C365        C366   1.409       .  A
C365        H370   1.083       .  S
C366        C367   1.406       .  A
C367        C368   1.404       .  A
C367        H371   1.083       .  S
C368        H372   1.083       .  S
C373        C374   1.406       .  A
C373        C378   1.397       .  A
C373        H383   1.083       .  S
C374        C379   1.482       .  S
C374        C375   1.403       .  A
C375        C376   1.395       .  A
C375        H380   1.083       .  S
C376        C377   1.407       .  A
C376        H381   1.083       .  S
C377        C378   1.405       .  A
C378        H382   1.083       .  S
C379        C384   1.404       .  A
C379        C388   1.407       .  A
C384        C385   1.393   1_554  A
C384        H389   1.083       .  S
C385        C386   1.404       .  A
C385        H390   1.084       .  S
C386        C387   1.405       .  A
C387        C388   1.400   1_556  A
C387        H391   1.082       .  S
C388        H392   1.083       .  S
C393        C394   1.411       .  A
C393        C398   1.399       .  A
C393        H403   1.081       .  S
C394        C399   1.503       .  S
C394        C395   1.412       .  A
C395        C396   1.402       .  A
C395        H400   1.082       .  S
C396        C397   1.402       .  A
C396        H401   1.083       .  S
C397        C398   1.403       .  A
C398        H402   1.084       .  S
C399        C404   1.412       .  A
C399        C408   1.412       .  A
C404        C405   1.400       .  A
C404        H409   1.082       .  S
C405        C406   1.402       .  A
C405        H410   1.084       .  S
C406        C407   1.402       .  A
C407        C408   1.401       .  A
C407        H411   1.083       .  S
C408        H412   1.080       .  S
C413        C414   1.403       .  A
C413        C418   1.398       .  A
C413        H423   1.083       .  S
C414        C419   1.486       .  S
C414        C415   1.407       .  A
C415        C416   1.403       .  A
C415        H420   1.083       .  S
C416        C417   1.406       .  A
C416        H421   1.083       .  S
C417        C418   1.407       .  A
C418        H422   1.083       .  S
C419        C424   1.406       .  A
C419        C428   1.404       .  A
C424        C425   1.401       .  A
C424        H429   1.083       .  S
C425        C426   1.407       .  A
C425        H430   1.083       .  S
C426        C427   1.408       .  A
C427        C428   1.400       .  A
C427        H431   1.083       .  S
C428        H432   1.083       .  S
C433        C434   1.407   1_556  A
C433        C438   1.400       .  A
C433        H443   1.083       .  S
C434        C439   1.483       .  S
C434        C435   1.404       .  A
C435        C436   1.394   1_554  A
C435        H440   1.083       .  S
C436        C437   1.405       .  A
C436        H441   1.083       .  S
C437        C438   1.404       .  A
C438        H442   1.084       .  S
C439        C444   1.405       .  A
C439        C448   1.406       .  A
C444        C445   1.395       .  A
C444        H449   1.083   1_554  S
C445        C446   1.405       .  A
C445        H450   1.083       .  S
C446        C447   1.405       .  A
C447        C448   1.398       .  A
C447        H451   1.083       .  S
C448        H452   1.083       .  S
C453        C454   1.406   1_455  A
C453        C458   1.399       .  A
C453        H463   1.083       .  S
C454        C459   1.478       .  S
C454        C455   1.401       .  A
C455        C456   1.393       .  A
C455        H460   1.083       .  S
C456        C457   1.408       .  A
C456        H461   1.084       .  S
C457        C458   1.404   1_655  A
C458        H462   1.083       .  S
C459        C464   1.406       .  A
C459        C468   1.402   1_655  A
C464        C465   1.400       .  A
C464        H469   1.083       .  S
C465        C466   1.404   1_655  A
C465        H470   1.083       .  S
C466        C467   1.405       .  A
C467        C468   1.393       .  A
C467        H471   1.084       .  S
C468        H472   1.083       .  S
C473        C474   1.407   1_554  A
C473        C478   1.401       .  A
C473        H483   1.083   1_554  S
C474        C479   1.484       .  S
C474        C475   1.404   1_656  A
C475        C476   1.394       .  A
C475        H480   1.083   1_554  S
C476        C477   1.405       .  A
C476        H481   1.083       .  S
C477        C478   1.405   1_455  A
C478        H482   1.083       .  S
C479        C484   1.403       .  A
C479        C488   1.407   1_655  A
C484        C485   1.396       .  A
C484        H489   1.083       .  S
C485        C486   1.408       .  A
C485        H490   1.083       .  S
C486        C487   1.405   1_655  A
C487        C488   1.400       .  A
C487        H491   1.083       .  S
C488        H492   1.083       .  S
C493        C494   1.404       .  A
C493        C498   1.396       .  A
C493        H503   1.083       .  S
C494        C499   1.486       .  S
C494        C495   1.407       .  A
C495        C496   1.401       .  A
C495        H500   1.083       .  S
C496        C497   1.406       .  A
C496        H501   1.082       .  S
C497        C498   1.408       .  A
C498        H502   1.084       .  S
C499        C504   1.407       .  A
C499        C508   1.404       .  A
C504        C505   1.398       .  A
C504        H509   1.083       .  S
C505        C506   1.405       .  A
C505        H510   1.083       .  S
C506        C507   1.408       .  A
C507        C508   1.399       .  A
C507        H511   1.083       .  S
C508        H512   1.083       .  S
C513        C514   1.405       .  A
C513        C518   1.400       .  A
C513        H523   1.083       .  S
C514        C519   1.476       .  S
C514        C515   1.400       .  A
C515        C516   1.393       .  A
C515        H520   1.083       .  S
C516        C517   1.408       .  A
C516        H521   1.083       .  S
C517        C518   1.407       .  A
C518        H522   1.083       .  S
C519        C524   1.402       .  A
C519        C528   1.403       .  A
C524        C525   1.398       .  A
C524        H529   1.083       .  S
C525        C526   1.408       .  A
C525        H530   1.083       .  S
C526        C527   1.406       .  A
C527        C528   1.395       .  A
C527        H531   1.083       .  S
C528        H532   1.083       .  S
C533        C534   1.407       .  A
C533        C538   1.394       .  A
C533        H543   1.083       .  S
C534        C539   1.487       .  S
C534        C535   1.407       .  A
C535        C536   1.402       .  A
C535        H540   1.082       .  S
C536        C537   1.404       .  A
C536        H541   1.083       .  S
C537        C538   1.401       .  A
C538        H542   1.083       .  S
C539        C544   1.405       .  A
C539        C548   1.411       .  A
C544        C545   1.388       .  A
C544        H549   1.083       .  S
C545        C546   1.400       .  A
C545        H550   1.084       .  S
C546        C547   1.404       .  A
C547        C548   1.407       .  A
C547        H551   1.082       .  S
C548        H552   1.083       .  S
C553        C554   1.402       .  A
C553        C558   1.396       .  A
C553        H563   1.083       .  S
C554        C559   1.480       .  S
C554        C555   1.405       .  A
C555        C556   1.402       .  A
C555        H560   1.083       .  S
C556        C557   1.407       .  A
C556        H561   1.083       .  S
C557        C558   1.408       .  A
C558        H562   1.083       .  S
C559        C564   1.402       .  A
C559        C568   1.406       .  A
C564        C565   1.395       .  A
C564        H569   1.083       .  S
C565        C566   1.407       .  A
C565        H570   1.083       .  S
C566        C567   1.405       .  A
C567        C568   1.402       .  A
C567        H571   1.083       .  S
C568        H572   1.083       .  S
C573        C574   1.403       .  A
C573        C578   1.397       .  A
C573        H583   1.083       .  S
C574        C579   1.486       .  S
C574        C575   1.409       .  A
C575        C576   1.401       .  A
C575        H580   1.083       .  S
C576        C577   1.404       .  A
C576        H581   1.083       .  S
C577        C578   1.406       .  A
C578        H582   1.084       .  S
C579        C584   1.409   1_556  A
C579        C588   1.402   1_556  A
C584        C585   1.404       .  A
C584        H589   1.083   1_554  S
C585        C586   1.405       .  A
C585        H590   1.083       .  S
C586        C587   1.407       .  A
C587        C588   1.393       .  A
C587        H591   1.083       .  S
C588        H592   1.083   1_554  S
C593        C594   1.406       .  A
C593        C598   1.400       .  A
C593        H603   1.083       .  S
C594        C599   1.487       .  S
C594        C595   1.405       .  A
C595        C596   1.396       .  A
C595        H600   1.083       .  S
C596        C597   1.405       .  A
C596        H601   1.083       .  S
C597        C598   1.407       .  A
C598        H602   1.083       .  S
C599        C604   1.407       .  A
C599        C608   1.405       .  A
C604        C605   1.401       .  A
C604        H609   1.083       .  S
C605        C606   1.406       .  A
C605        H610   1.083       .  S
C606        C607   1.406       .  A
C607        C608   1.395       .  A
C607        H611   1.083       .  S
C608        H612   1.083       .  S
C613        C614   1.405       .  A
C613        C618   1.401       .  A
C613        H623   1.083       .  S
C614        C619   1.485       .  S
C614        C615   1.405       .  A
C615        C616   1.396       .  A
C615        H620   1.083       .  S
C616        C617   1.406       .  A
C616        H621   1.083       .  S
C617        C618   1.408       .  A
C618        H622   1.083       .  S
C619        C624   1.403       .  A
C619        C628   1.407       .  A
C624        C625   1.394       .  A
C624        H629   1.083       .  S
C625        C626   1.406       .  A
C625        H630   1.083       .  S
C626        C627   1.407       .  A
C627        C628   1.402       .  A
C627        H631   1.083       .  S
C628        H632   1.083       .  S
C633        C634   1.404   1_556  A
C633        C638   1.400       .  A
C633        H643   1.083       .  S
C634        C639   1.478       .  S
C634        C635   1.403       .  A
C635        C636   1.394   1_554  A
C635        H640   1.084       .  S
C636        C637   1.405       .  A
C636        H641   1.083   1_556  S
C637        C638   1.407       .  A
C638        H642   1.083       .  S
C639        C644   1.403       .  A
C639        C648   1.405       .  A
C644        C645   1.395       .  A
C644        H649   1.083   1_554  S
C645        C646   1.405       .  A
C645        H650   1.083       .  S
C646        C647   1.404       .  A
C647        C648   1.399       .  A
C647        H651   1.083       .  S
C648        H652   1.083       .  S
C653        C654   1.405       .  A
C653        C658   1.398       .  A
C653        H663   1.083       .  S
C654        C659   1.486       .  S
C654        C655   1.404       .  A
C655        C656   1.400       .  A
C655        H660   1.083       .  S
C656        C657   1.408       .  A
C656        H661   1.083       .  S
C657        C658   1.406       .  A
C658        H662   1.083       .  S
C659        C664   1.402       .  A
C659        C668   1.407       .  A
C664        C665   1.396       .  A
C664        H669   1.083       .  S
C665        C666   1.409       .  A
C665        H670   1.083       .  S
C666        C667   1.407       .  A
C667        C668   1.404       .  A
C667        H671   1.083       .  S
C668        H672   1.083       .  S
C673        C674   1.403       .  A
C673        C678   1.395       .  A
C673        H683   1.084       .  S
C674        C679   1.477       .  S
C674        C675   1.405       .  A
C675        C676   1.398       .  A
C675        H680   1.083       .  S
C676        C677   1.405       .  A
C676        H681   1.083       .  S
C677        C678   1.404       .  A
C678        H682   1.084       .  S
C679        C684   1.404       .  A
C679        C688   1.404       .  A
C684        C685   1.392       .  A
C684        H689   1.083       .  S
C685        C686   1.403       .  A
C685        H690   1.083       .  S
C686        C687   1.407       .  A
C687        C688   1.400       .  A
C687        H691   1.084       .  S
C688        H692   1.083       .  S
C693        C694   1.405   1_545  A
C693        C698   1.401   1_544  A
C693        H703   1.083       .  S
C694        C699   1.483       .  S
C694        C695   1.404       .  A
C695        C696   1.396       .  A
C695        H700   1.083       .  S
C696        C697   1.406   1_554  A
C696        H701   1.083   1_554  S
C697        C698   1.406       .  A
C698        H702   1.083   1_565  S
C699        C704   1.405       .  A
C699        C708   1.405       .  A
C704        C705   1.399       .  A
C704        H709   1.083   1_565  S
C705        C706   1.407       .  A
C705        H710   1.083   1_565  S
C706        C707   1.405       .  A
C707        C708   1.397       .  A
C707        H711   1.083       .  S
C708        H712   1.083       .  S
C713        C714   1.402       .  A
C713        C718   1.395       .  A
C713        H723   1.084       .  S
C714        C719   1.483       .  S
C714        C715   1.407       .  A
C715        C716   1.404       .  A
C715        H720   1.083   1_565  S
C716        C717   1.407       .  A
C716        H721   1.083   1_565  S
C717        C718   1.408       .  A
C718        H722   1.082       .  S
C719        C724   1.402       .  A
C719        C728   1.407       .  A
C724        C725   1.398       .  A
C724        H729   1.083   1_565  S
C725        C726   1.407       .  A
C725        H730   1.084   1_565  S
C726        C727   1.406       .  A
C727        C728   1.402       .  A
C727        H731   1.083       .  S
C728        H732   1.083       .  S
C733        C734   1.402       .  A
C733        C738   1.397       .  A
C733        H743   1.083       .  S
C734        C739   1.481       .  S
C734        C735   1.407       .  A
C735        C736   1.400       .  A
C735        H740   1.083       .  S
C736        C737   1.404       .  A
C736        H741   1.083       .  S
C737        C738   1.409       .  A
C738        H742   1.083       .  S
C739        C744   1.407       .  A
C739        C748   1.402       .  A
C744        C745   1.402       .  A
C744        H749   1.083       .  S
C745        C746   1.405       .  A
C745        H750   1.083       .  S
C746        C747   1.405       .  A
C747        C748   1.394       .  A
C747        H751   1.083       .  S
C748        H752   1.083       .  S
C753        C754   1.404       .  A
C753        C758   1.396       .  A
C753        H763   1.083       .  S
C754        C759   1.485       .  S
C754        C755   1.408       .  A
C755        C756   1.405       .  A
C755        H760   1.083       .  S
C756        C757   1.405       .  A
C756        H761   1.083       .  S
C757        C758   1.404       .  A
C758        H762   1.083       .  S
C759        C764   1.408       .  A
C759        C768   1.404       .  A
C764        C765   1.403       .  A
C764        H769   1.083       .  S
C765        C766   1.402       .  A
C765        H770   1.083       .  S
C766        C767   1.404       .  A
C767        C768   1.399       .  A
C767        H771   1.084       .  S
C768        H772   1.083       .  S
C773        C774   1.403       .  A
C773        C778   1.396       .  A
C773        H783   1.084       .  S
C774        C779   1.485       .  S
C774        C775   1.408       .  A
C775        C776   1.406       .  A
C775        H780   1.083       .  S
C776        C777   1.404       .  A
C776        H781   1.083       .  S
C777        C778   1.404       .  A
C778        H782   1.084       .  S
C779        C784   1.408       .  A
C779        C788   1.404       .  A
C784        C785   1.403       .  A
C784        H789   1.083       .  S
C785        C786   1.403       .  A
C785        H790   1.083       .  S
C786        C787   1.405       .  A
C787        C788   1.398       .  A
C787        H791   1.084       .  S
C788        H792   1.083       .  S
C793        C794   1.402       .  A
C793        C798   1.395       .  A
C793        H803   1.084       .  S
C794        C799   1.486       .  S
C794        C795   1.407       .  A
C795        C796   1.406       .  A
C795        H800   1.083       .  S
C796        C797   1.407       .  A
C796        H801   1.083       .  S
C797        C798   1.409       .  A
C798        H802   1.083       .  S
C799        C804   1.405       .  A
C799        C808   1.405       .  A
C804        C805   1.398       .  A
C804        H809   1.083       .  S
C805        C806   1.406   1_554  A
C805        H810   1.083       .  S
C806        C807   1.408       .  A
C807        C808   1.404   1_556  A
C807        H811   1.083       .  S
C808        H812   1.083       .  S
C813        C814   1.403       .  A
C813        C818   1.394       .  A
C813        H823   1.083       .  S
C814        C819   1.480       .  S
C814        C815   1.406       .  A
C815        C816   1.399       .  A
C815        H820   1.083       .  S
C816        C817   1.403       .  A
C816        H821   1.082       .  S
C817        C818   1.408       .  A
C818        H822   1.084       .  S
C819        C824   1.405       .  A
C819        C828   1.403       .  A
C824        C825   1.399       .  A
C824        H829   1.083       .  S
C825        C826   1.407       .  A
C825        H830   1.083       .  S
C826        C827   1.406       .  A
C827        C828   1.395       .  A
C827        H831   1.083       .  S
C828        H832   1.083       .  S
C833        C834   1.404       .  A
C833        C838   1.397       .  A
C833        H843   1.084       .  S
C834        C839   1.483       .  S
C834        C835   1.407       .  A
C835        C836   1.403       .  A
C835        H840   1.083       .  S
C836        C837   1.403       .  A
C836        H841   1.083       .  S
C837        C838   1.403       .  A
C838        H842   1.084       .  S
C839        C844   1.403       .  A
C839        C848   1.407       .  A
C844        C845   1.397       .  A
C844        H849   1.083       .  S
C845        C846   1.404       .  A
C845        H850   1.083       .  S
C846        C847   1.404       .  A
C847        C848   1.403       .  A
C847        H851   1.083       .  S
C848        H852   1.083       .  S
C853        C854   1.406       .  A
C853        C858   1.397       .  A
C853        H863   1.082       .  S
C854        C859   1.483       .  S
C854        C855   1.404       .  A
C855        C856   1.395       .  A
C855        H860   1.083       .  S
C856        C857   1.407       .  A
C856        H861   1.083       .  S
C857        C858   1.405       .  A
C858        H862   1.084       .  S
C859        C864   1.404       .  A
C859        C868   1.406       .  A
C864        C865   1.395       .  A
C864        H869   1.083       .  S
C865        C866   1.407       .  A
C865        H870   1.083       .  S
C866        C867   1.405       .  A
C867        C868   1.397       .  A
C867        H871   1.083       .  S
C868        H872   1.083       .  S
C873        C874   1.403       .  A
C873        C878   1.394       .  A
C873        H883   1.084       .  S
C874        C879   1.485       .  S
C874        C875   1.409       .  A
C875        C876   1.406       .  A
C875        H880   1.083       .  S
C876        C877   1.404       .  A
C876        H881   1.083       .  S
C877        C878   1.404       .  A
C878        H882   1.084       .  S
C879        C884   1.408       .  A
C879        C888   1.405       .  A
C884        C885   1.401       .  A
C884        H889   1.083       .  S
C885        C886   1.402       .  A
C885        H890   1.084       .  S
C886        C887   1.403       .  A
C887        C888   1.398       .  A
C887        H891   1.083       .  S
C888        H892   1.083       .  S
C893        C894   1.405       .  A
C893        C898   1.398       .  A
C893        H903   1.083       .  S
C894        C899   1.489       .  S
C894        C895   1.407       .  A
C895        C896   1.400       .  A
C895        H900   1.083       .  S
C896        C897   1.406       .  A
C896        H901   1.082       .  S
C897        C898   1.408       .  A
C898        H902   1.084       .  S
C899        C904   1.408       .  A
C899        C908   1.404       .  A
C904        C905   1.401       .  A
C904        H909   1.083       .  S
C905        C906   1.406       .  A
C905        H910   1.083       .  S
C906        C907   1.407       .  A
C907        C908   1.397       .  A
C907        H911   1.083       .  S
C908        H912   1.082       .  S
C913        C914   1.406   1_556  A
C913        C918   1.401       .  A
C913        H923   1.083       .  S
C914        C919   1.484       .  S
C914        C915   1.407       .  A
C915        C916   1.396   1_554  A
C915        H920   1.083       .  S
C916        C917   1.399       .  A
C916        H921   1.084       .  S
C917        C918   1.403       .  A
C918        H922   1.084       .  S
C919        C924   1.409       .  A
C919        C928   1.404       .  A
C924        C925   1.407       .  A
C924        H929   1.082       .  S
C925        C926   1.405       .  A
C925        H930   1.083   1_545  S
C926        C927   1.400       .  A
C927        C928   1.389       .  A
C927        H931   1.084       .  S
C928        H932   1.084       .  S
C933        C934   1.401       .  A
C933        C938   1.390       .  A
C933        H943   1.083       .  S
C934        C939   1.479       .  S
C934        C935   1.406       .  A
C935        C936   1.403       .  A
C935        H940   1.083   1_565  S
C936        C937   1.407       .  A
C936        H941   1.082   1_565  S
C937        C938   1.407       .  A
C938        H942   1.084       .  S
C939        C944   1.404   1_565  A
C939        C948   1.404   1_556  A
C944        C945   1.392   1_556  A
C944        H949   1.084       .  S
C945        C946   1.403       .  A
C945        H950   1.083       .  S
C946        C947   1.407   1_545  A
C947        C948   1.401       .  A
C947        H951   1.083       .  S
C948        H952   1.083       .  S
C953        C954   1.405   1_545  A
C953        C958   1.398       .  A
C953        H963   1.083       .  S
C954        C959   1.479       .  S
C954        C955   1.403       .  A
C955        C956   1.397       .  A
C955        H960   1.083       .  S
C956        C957   1.407       .  A
C956        H961   1.083       .  S
C957        C958   1.406   1_565  A
C958        H962   1.083       .  S
C959        C964   1.402   1_565  A
C959        C968   1.405       .  A
C964        C965   1.395       .  A
C964        H969   1.083       .  S
C965        C966   1.407       .  A
C965        H970   1.083       .  S
C966        C967   1.407   1_545  A
C967        C968   1.401       .  A
C967        H971   1.082       .  S
C968        H972   1.083       .  S
C973        C974   1.407       .  A
C973        C978   1.403       .  A
C973        H983   1.083       .  S
C974        C979   1.491       .  S
C974        C975   1.409       .  A
C975        C976   1.397       .  A
C975        H980   1.083       .  S
C976        C977   1.399       .  A
C976        H981   1.083       .  S
C977        C978   1.404       .  A
C978        H982   1.084       .  S
C979        C984   1.411       .  A
C979        C988   1.405       .  A
C984        C985   1.408       .  A
C984        H989   1.083       .  S
C985        C986   1.406       .  A
C985        H990   1.083       .  S
C986        C987   1.401       .  A
C987        C988   1.390       .  A
C987        H991   1.084       .  S
C988        H992   1.083       .  S
C993        C994   1.404       .  A
C993        C998   1.398       .  A
C993       H1003   1.083       .  S
C994        C999   1.486       .  S
C994        C995   1.406       .  A
C995        C996   1.400       .  A
C995       H1000   1.083       .  S
C996        C997   1.406       .  A
C996       H1001   1.083       .  S
C997        C998   1.408       .  A
C998       H1002   1.083       .  S
C999       C1004   1.405       .  A
C999       C1008   1.405       .  A
C1004      C1005   1.400       .  A
C1004      H1009   1.083       .  S
C1005      C1006   1.407       .  A
C1005      H1010   1.083       .  S
C1006      C1007   1.407       .  A
C1007      C1008   1.399       .  A
C1007      H1011   1.083       .  S
C1008      H1012   1.083       .  S
C1013      C1014   1.408       .  A
C1013      C1018   1.402       .  A
C1013      H1023   1.083       .  S
C1014      C1019   1.486       .  S
C1014      C1015   1.406       .  A
C1015      C1016   1.399       .  A
C1015      H1020   1.084       .  S
C1016      C1017   1.402       .  A
C1016      H1021   1.083       .  S
C1017      C1018   1.402       .  A
C1018      H1022   1.083       .  S
C1019      C1024   1.409       .  A
C1019      C1028   1.403       .  A
C1024      C1025   1.405       .  A
C1024      H1029   1.082       .  S
C1025      C1026   1.403       .  A
C1025      H1030   1.083       .  S
C1026      C1027   1.405       .  A
C1027      C1028   1.394       .  A
C1027      H1031   1.084       .  S
C1028      H1032   1.084       .  S
C1033      C1034   1.407       .  A
C1033      C1038   1.403       .  A
C1033      H1043   1.080       .  S
C1034      C1039   1.485       .  S
C1034      C1035   1.403       .  A
C1035      C1036   1.397       .  A
C1035      H1040   1.086       .  S
C1036      C1037   1.408       .  A
C1036      H1041   1.079       .  S
C1037      C1038   1.406       .  A
C1038      H1042   1.086       .  S
C1039      C1044   1.403       .  A
C1039      C1048   1.406       .  A
C1044      C1045   1.401       .  A
C1044      H1049   1.086       .  S
C1045      C1046   1.410       .  A
C1045      H1050   1.080       .  S
C1046      C1047   1.405       .  A
C1047      C1048   1.400       .  A
C1047      H1051   1.087       .  S
C1048      H1052   1.080       .  S
C1053      C1054   1.405       .  A
C1053      C1058   1.394       .  A
C1053      H1063   1.081       .  S
C1054      C1059   1.484       .  S
C1054      C1055   1.407       .  A
C1055      C1056   1.401       .  A
C1055      H1060   1.087       .  S
C1056      C1057   1.404       .  A
C1056      H1061   1.081       .  S
C1057      C1058   1.404       .  A
C1058      H1062   1.088       .  S
C1059      C1064   1.407       .  A
C1059      C1068   1.405       .  A
C1064      C1065   1.401       .  A
C1064      H1069   1.088       .  S
C1065      C1066   1.405       .  A
C1065      H1070   1.081       .  S
C1066      C1067   1.404       .  A
C1067      C1068   1.394       .  A
C1067      H1071   1.088       .  S
C1068      H1072   1.082       .  S
C1073      C1074   1.401       .  A
C1073      C1078   1.392       .  A
C1073      H1083   1.083   1_655  S
C1074      C1079   1.479       .  S
C1074      C1075   1.406       .  A
C1075      C1076   1.403       .  A
C1075      H1080   1.083       .  S
C1076      C1077   1.407       .  A
C1076      H1081   1.083       .  S
C1077      C1078   1.407       .  A
C1078      H1082   1.084   1_655  S
C1079      C1084   1.403       .  A
C1079      C1088   1.405       .  A
C1084      C1085   1.393       .  A
C1084      H1089   1.084       .  S
C1085      C1086   1.404   1_554  A
C1085      H1090   1.083       .  S
C1086      C1087   1.406       .  A
C1087      C1088   1.402   1_556  A
C1087      H1091   1.083       .  S
C1088      H1092   1.083       .  S
C1093      C1094   1.402   1_455  A
C1093      C1098   1.395       .  A
C1093      H1103   1.083       .  S
C1094      C1099   1.476       .  S
C1094      C1095   1.405       .  A
C1095      C1096   1.397       .  A
C1095      H1100   1.083       .  S
C1096      C1097   1.405       .  A
C1096      H1101   1.083       .  S
C1097      C1098   1.406   1_655  A
C1098      H1102   1.083       .  S
C1099      C1104   1.405   1_655  A
C1099      C1108   1.401       .  A
C1104      C1105   1.400   1_455  A
C1104      H1109   1.083       .  S
C1105      C1106   1.406       .  A
C1105      H1110   1.082   1_655  S
C1106      C1107   1.406       .  A
C1107      C1108   1.392       .  A
C1107      H1111   1.083       .  S
C1108      H1112   1.083       .  S
C1113      C1114   1.407       .  A
C1113      C1118   1.400       .  A
C1113      H1123   1.082       .  S
C1114      C1119   1.488       .  S
C1114      C1115   1.407       .  A
C1115      C1116   1.403       .  A
C1115      H1120   1.083       .  S
C1116      C1117   1.404       .  A
C1116      H1121   1.083       .  S
C1117      C1118   1.402       .  A
C1118      H1122   1.083       .  S
C1119      C1124   1.409       .  A
C1119      C1128   1.404       .  A
C1124      C1125   1.407       .  A
C1124      H1129   1.083       .  S
C1125      C1126   1.405       .  A
C1125      H1130   1.083       .  S
C1126      C1127   1.404       .  A
C1127      C1128   1.393       .  A
C1127      H1131   1.084       .  S
C1128      H1132   1.083       .  S
C1133      C1134   1.401       .  A
C1133      C1138   1.392       .  A
C1133      H1143   1.083       .  S
C1134      C1139   1.478       .  S
C1134      C1135   1.406       .  A
C1135      C1136   1.402       .  A
C1135      H1140   1.083       .  S
C1136      C1137   1.405       .  A
C1136      H1141   1.083       .  S
C1137      C1138   1.406       .  A
C1138      H1142   1.083       .  S
C1139      C1144   1.406       .  A
C1139      C1148   1.402       .  A
C1144      C1145   1.397       .  A
C1144      H1149   1.083       .  S
C1145      C1146   1.403       .  A
C1145      H1150   1.083       .  S
C1146      C1147   1.407       .  A
C1147      C1148   1.397       .  A
C1147      H1151   1.083       .  S
C1148      H1152   1.083       .  S
C1153      C1154   1.404       .  A
C1153      C1158   1.397       .  A
C1153      H1163   1.082       .  S
C1154      C1159   1.487       .  S
C1154      C1155   1.407       .  A
C1155      C1156   1.399       .  A
C1155      H1160   1.083       .  S
C1156      C1157   1.406       .  A
C1156      H1161   1.083       .  S
C1157      C1158   1.408       .  A
C1158      H1162   1.083       .  S
C1159      C1164   1.407       .  A
C1159      C1168   1.405       .  A
C1164      C1165   1.399       .  A
C1164      H1169   1.083       .  S
C1165      C1166   1.407       .  A
C1165      H1170   1.083       .  S
C1166      C1167   1.407       .  A
C1167      C1168   1.397       .  A
C1167      H1171   1.083       .  S
C1168      H1172   1.083       .  S
C1173      C1174   1.405       .  A
C1173      C1178   1.395       .  A
C1173      H1183   1.083       .  S
C1174      C1179   1.484       .  S
C1174      C1175   1.407       .  A
C1175      C1176   1.401       .  A
C1175      H1180   1.083       .  S
C1176      C1177   1.403       .  A
C1176      H1181   1.083       .  S
C1177      C1178   1.404       .  A
C1178      H1182   1.084       .  S
C1179      C1184   1.405       .  A
C1179      C1188   1.407   1_554  A
C1184      C1185   1.395   1_554  A
C1184      H1189   1.083       .  S
C1185      C1186   1.402       .  A
C1185      H1190   1.084   1_556  S
C1186      C1187   1.403       .  A
C1187      C1188   1.400       .  A
C1187      H1191   1.083       .  S
C1188      H1192   1.083       .  S
C1193      C1194   1.403       .  A
C1193      C1198   1.396       .  A
C1193      H1203   1.084       .  S
C1194      C1199   1.478       .  S
C1194      C1195   1.405       .  A
C1195      C1196   1.401       .  A
C1195      H1200   1.082       .  S
C1196      C1197   1.402       .  A
C1196      H1201   1.083       .  S
C1197      C1198   1.402       .  A
C1198      H1202   1.084       .  S
C1199      C1204   1.402       .  A
C1199      C1208   1.405       .  A
C1204      C1205   1.396       .  A
C1204      H1209   1.084       .  S
C1205      C1206   1.406       .  A
C1205      H1210   1.083       .  S
C1206      C1207   1.403       .  A
C1207      C1208   1.402       .  A
C1207      H1211   1.084       .  S
C1208      H1212   1.082       .  S
C1213      C1214   1.407       .  A
C1213      C1218   1.402       .  A
C1213      H1223   1.083       .  S
C1214      C1219   1.491       .  S
C1214      C1215   1.406       .  A
C1215      C1216   1.402       .  A
C1215      H1220   1.083       .  S
C1216      C1217   1.406       .  A
C1216      H1221   1.084       .  S
C1217      C1218   1.406       .  A
C1218      H1222   1.083       .  S
C1219      C1224   1.405       .  A
C1219      C1228   1.406       .  A
C1224      C1225   1.401       .  A
C1224      H1229   1.083       .  S
C1225      C1226   1.408       .  A
C1225      H1230   1.083       .  S
C1226      C1227   1.408       .  A
C1227      C1228   1.402       .  A
C1227      H1231   1.083       .  S
C1228      H1232   1.083       .  S
C1233      C1234   1.404       .  A
C1233      C1238   1.395       .  A
C1233      H1243   1.083       .  S
C1234      C1239   1.487       .  S
C1234      C1235   1.409       .  A
C1235      C1236   1.402       .  A
C1235      H1240   1.082       .  S
C1236      C1237   1.404       .  A
C1236      H1241   1.083       .  S
C1237      C1238   1.406       .  A
C1238      H1242   1.083       .  S
C1239      C1244   1.408       .  A
C1239      C1248   1.405       .  A
C1244      C1245   1.402       .  A
C1244      H1249   1.083       .  S
C1245      C1246   1.405       .  A
C1245      H1250   1.083       .  S
C1246      C1247   1.403       .  A
C1247      C1248   1.394       .  A
C1247      H1251   1.083       .  S
C1248      H1252   1.083       .  S
C1253      C1254   1.405       .  A
C1253      C1258   1.399       .  A
C1253      H1263   1.083       .  S
C1254      C1259   1.487       .  S
C1254      C1255   1.406       .  A
C1255      C1256   1.398       .  A
C1255      H1260   1.083       .  S
C1256      C1257   1.405       .  A
C1256      H1261   1.083       .  S
C1257      C1258   1.408       .  A
C1258      H1262   1.082       .  S
C1259      C1264   1.406       .  A
C1259      C1268   1.405       .  A
C1264      C1265   1.399       .  A
C1264      H1269   1.083       .  S
C1265      C1266   1.407       .  A
C1265      H1270   1.083       .  S
C1266      C1267   1.406       .  A
C1267      C1268   1.397       .  A
C1267      H1271   1.083       .  S
C1268      H1272   1.083       .  S
C1273      C1274   1.405       .  A
C1273      C1278   1.401       .  A
C1273      H1283   1.083       .  S
C1274      C1279   1.473       .  S
C1274      C1275   1.399       .  A
C1275      C1276   1.387       .  A
C1275      H1280   1.084       .  S
C1276      C1277   1.407       .  A
C1276      H1281   1.084       .  S
C1277      C1278   1.406       .  A
C1278      H1282   1.083       .  S
C1279      C1284   1.404   1_556  A
C1279      C1288   1.403       .  A
C1284      C1285   1.400       .  A
C1284      H1289   1.083       .  S
C1285      C1286   1.405       .  A
C1285      H1290   1.083       .  S
C1286      C1287   1.402       .  A
C1287      C1288   1.388   1_554  A
C1287      H1291   1.084       .  S
C1288      H1292   1.084       .  S
C1293      C1294   1.407       .  A
C1293      C1298   1.404       .  A
C1293      H1303   1.083       .  S
C1294      C1299   1.485       .  S
C1294      C1295   1.403       .  A
C1295      C1296   1.394       .  A
C1295      H1300   1.083       .  S
C1296      C1297   1.404       .  A
C1296      H1301   1.083       .  S
C1297      C1298   1.408       .  A
C1298      H1302   1.083       .  S
C1299      C1304   1.403       .  A
C1299      C1308   1.407       .  A
C1304      C1305   1.398       .  A
C1304      H1309   1.083       .  S
C1305      C1306   1.409       .  A
C1305      H1310   1.083       .  S
C1306      C1307   1.405       .  A
C1307      C1308   1.400       .  A
C1307      H1311   1.084       .  S
C1308      H1312   1.083       .  S
