geometry optimzed in LAMMPS
_audit_creation_date              2020-11-30 
_audit_creation_method            'lammps2cif' 
_symmetry_space_group_name_H-M    'P1' 
_symmetry_Int_Tables_number       1 
_symmetry_cell_setting            triclinic 
loop_ 
_symmetry_equiv_pos_as_xyz 
  x,y,z 
_cell_length_a                    43.79021676 
_cell_length_b                    43.71726179661488 
_cell_length_c                    35.56149294862418 
_cell_angle_alpha                 89.84935749067478 
_cell_angle_beta                  90.06488163436934 
_cell_angle_gamma                 120.98927376436798 
loop_ 
_atom_site_label 
_atom_site_type_symbol 
_atom_site_fract_x 
_atom_site_fract_y 
_atom_site_fract_z 
_atom_site_charge 
O1          O  0.04415876  0.41110357  0.31704247    -0.57700
C2          C  0.11339944  0.49488726  0.28213653     0.74900
O3          O  0.13938592  0.40131820  0.29324108    -0.58900
C4          C  0.03905498  0.38273630  0.33253358     0.74900
C5          C  0.05721659  0.38803956  0.21110628     0.77300
Cd6        Cd  0.09489654  0.42128199  0.28115312     1.37500
O7          O  0.09118536  0.47160783  0.30457560    -0.57700
O8          O  0.08902910  0.41439460  0.21018917    -0.56500
C9          C  0.15229508  0.42082007  0.32223038     0.77200
O10         O  0.04516279  0.37605537  0.24342938    -0.58900
O11         O  0.12661892  0.48400166  0.25755486    -0.57400
O12         O  0.05964819  0.37167900  0.32335948    -0.57300
O13         O  0.14007481  0.44061448  0.32965209    -0.56500
O14         O  0.35476522  0.42303337  0.40728920    -0.57700
C15         C  0.37195378  0.49231704  0.46298018     0.74900
O16         O  0.25091621  0.38872018  0.44007574    -0.58900
C17         C  0.33364067  0.39261430  0.39358851     0.74900
C18         C  0.32607458  0.38326897  0.01928137     0.77300
Cd19       Cd  0.31577887  0.41958020  0.45639172     1.37500
O20         O  0.36384714  0.47525628  0.43240819    -0.57700
O21         O  0.33753822  0.38423673  0.48653803    -0.56500
C22         C  0.25294940  0.41621888  0.42563446     0.77200
O23         O  0.30797727  0.39831217  0.02331144    -0.58900
O24         O  0.35247179  0.47625984  0.49125037    -0.57400
O25         O  0.30376921  0.37402731  0.40961987    -0.57300
O26         O  0.28170688  0.44524278  0.43150731    -0.56500
O27         O  0.58481095  0.63458215  0.99586480    -0.57700
C28         C  0.50772098  0.62225544  0.45506454     0.74900
O29         O  0.60962409  0.72644210  0.49187582    -0.58900
C30         C  0.61792461  0.65373281  0.00207122     0.74900
C31         C  0.61624108  0.66505958  0.38452362     0.77300
Cd32       Cd  0.58276850  0.67404882  0.45028627     1.37500
O33         O  0.52889415  0.63079227  0.48252067    -0.57700
O34         O  0.61266021  0.69205233  0.38678666    -0.56500
C35         C  0.59047606  0.73894547  0.48204270     0.77200
O36         O  0.60250991  0.64255548  0.41070243    -0.58900
O37         O  0.52128042  0.63863522  0.42447880    -0.57400
O38         O  0.63475121  0.68341499  0.48488884    -0.57300
O39         O  0.56990969  0.72334132  0.95449921    -0.56500
O40         O  0.58004748  0.93334256  0.05036767    -0.57700
C41         C  0.50620242  0.88619332  0.11142126     0.74900
O42         O  0.60687715  0.86561179  0.09780557    -0.58900
C43         C  0.61289724  0.94696743  0.04378637     0.74900
C44         C  0.61230000  0.95306081  0.16963922     0.77300
Cd45       Cd  0.57898097  0.90329300  0.10689951     1.37500
O46         O  0.52709652  0.90444849  0.08511479    -0.57700
O47         O  0.60876706  0.96194180  0.13689191    -0.56500
C48         C  0.58195872  0.84273663  0.07714256     0.77200
O49         O  0.60157835  0.92012570  0.17413419    -0.58900
O50         O  0.51876900  0.87491297  0.13648888    -0.57400
O51         O  0.63080220  0.94050307  0.06700800    -0.57300
O52         O  0.55466599  0.84544352  0.07504655    -0.56500
O53         O  0.38113199  0.91564307  0.14564415    -0.57700
C54         C  0.33466187  0.96626215  0.17976222     0.74900
O55         O  0.31215165  0.92561547  0.06043271    -0.58900
C56         C  0.37968529  0.89385376  0.12137144     0.74900
C57         C  0.26832531  0.85564705  0.16184610     0.77300
Cd58       Cd  0.32785231  0.91563804  0.12584152     1.37500
O59         O  0.36069469  0.96323852  0.16969790    -0.57700
O60         O  0.29997872  0.87005324  0.17359863    -0.56500
C61         C  0.33784178  0.95781185  0.05900248     0.77200
O62         O  0.26351935  0.86801696  0.13146964    -0.58900
O63         O  0.30481215  0.94581088  0.16450158    -0.57400
O64         O  0.35410629  0.88200652  0.09810241    -0.57300
O65         O  0.35765460  0.96900388  0.08763512    -0.56500
O66         O  0.10854949  0.63733135  0.25515434    -0.57700
C67         C  0.04754165  0.66117312  0.22652416     0.74900
O68         O  0.08351787  0.69509222  0.34927661    -0.58900
C69         C  0.11994447  0.62941737  0.28400642     0.74900
C70         C  0.15597939  0.74760917  0.25523887     0.77300
Cd71       Cd  0.09773237  0.68120369  0.28481779     1.37500
O72         O  0.06033124  0.64218618  0.23628515    -0.57700
O73         O  0.12385941  0.73908413  0.25194516    -0.56500
C74         C  0.05136505  0.66940572  0.34876692     0.77200
O75         O  0.16154514  0.72750436  0.27622966    -0.58900
O76         O  0.05915363  0.69071194  0.24314184    -0.57400
O77         O  0.12267275  0.64679092  0.31364946    -0.57300
O78         O  0.04225547  0.64968808  0.32019878    -0.56500
O79         O  0.90474246  0.52914918  0.05437492    -0.57700
C80         C  0.95506689  0.61422759  0.09888050     0.74900
O81         O  0.92061571  0.61229460  0.47327443    -0.58900
C82         C  0.88659554  0.51082043  0.02664438     0.74900
C83         C  0.85116462  0.58829020  0.07539811     0.77300
Cd84       Cd  0.90749493  0.58385626  0.03781682     1.37500
O85         O  0.94550389  0.58360097  0.08618198    -0.57700
O86         O  0.85442333  0.56125955  0.07745293    -0.56500
C87         C  0.95327769  0.62141775  0.47421653     0.77200
O88         O  0.87088104  0.61150216  0.05126511    -0.58900
O89         O  0.94320973  0.63161538  0.08226678    -0.57400
O90         O  0.87642928  0.52592293  0.00344785    -0.57300
O91         O  0.96345434  0.61321148  0.00370288    -0.56500
O92         O  0.66052061  0.58146031  0.13382024    -0.57700
C93         C  0.62261127  0.51862179  0.20016737     0.74900
O94         O  0.74647501  0.62283465  0.17598409    -0.58900
C95         C  0.67215131  0.61401273  0.12677646     0.74900
C96         C  0.67249176  0.62622849  0.25851048     0.77300
Cd97       Cd  0.68342089  0.59014359  0.19652116     1.37500
O98         O  0.62445598  0.54262302  0.17883029    -0.57700
O99         O  0.66137194  0.62540630  0.22565171    -0.56500
C100        C  0.74971182  0.59575574  0.17418258     0.77200
O101        O  0.69083963  0.61154408  0.26284438    -0.58900
O102        O  0.64886506  0.52793962  0.22207243    -0.57400
O103        O  0.68973453  0.63608690  0.15258551    -0.57300
O104        O  0.72407149  0.56718213  0.18751835    -0.56500
O105        O  0.61583744  0.07882720  0.38312132    -0.57700
C106        C  0.66047912  0.03906877  0.41658093     0.74900
O107        O  0.67474445  0.04573756  0.32549898    -0.58900
C108        C  0.61452836  0.10354553  0.36615178     0.74900
C109        C  0.73477821  0.15244421  0.40211453     0.77300
Cd110      Cd  0.67475438  0.09297330  0.36335214     1.37500
O111        O  0.63622942  0.04242497  0.40140846    -0.57700
O112        O  0.73933131  0.14283179  0.36994416    -0.56500
C113        C  0.66996830  0.05509349  0.29352961     0.77200
O114        O  0.70301410  0.13658414  0.41361385    -0.58900
O115        O  0.69227168  0.06088628  0.40668243    -0.57400
O116        O  0.64163021  0.12425232  0.34639871    -0.57300
O117        O  0.67152127  0.08492122  0.29261302    -0.56500
O118        O  0.90193447  0.37464843  0.99692144    -0.57700
C119        C  0.94822910  0.33762864  0.46060032     0.74900
O120        O  0.92473254  0.31829817  0.09002758    -0.58900
C121        C  0.88707698  0.37995801  0.02453553     0.74900
C122        C  0.84498438  0.25881080  0.50008498     0.77300
Cd123      Cd  0.90611411  0.32594383  0.02478813     1.37500
O124        O  0.93320268  0.35525599  0.46696772    -0.57700
O125        O  0.84109772  0.28227683  0.51641847    -0.56500
C126        C  0.95671188  0.34400019  0.08657633     0.77200
O127        O  0.87624346  0.26426265  0.00031699    -0.58900
O128        O  0.94352563  0.31401820  0.48440889    -0.57400
O129        O  0.88030179  0.35943672  0.05257692    -0.57300
O130        O  0.96418788  0.35984213  0.05533387    -0.56500
O131        O  0.41571016  0.37055039  0.25738760    -0.57700
C132        C  0.48938107  0.38498605  0.20511346     0.74900
O133        O  0.44047248  0.29371808  0.22765355    -0.58900
C134        C  0.38337536  0.35083527  0.26650302     0.74900
C135        C  0.37957689  0.33959360  0.14472311     0.77300
Cd136      Cd  0.41524850  0.33128703  0.20963035     1.37500
O137        O  0.47147867  0.37868817  0.23504132    -0.57700
O138        O  0.39478018  0.36251133  0.17021585    -0.56500
C139        C  0.41227732  0.26839337  0.24194693     0.77200
O140        O  0.38229312  0.31205771  0.14721828    -0.58900
O141        O  0.47319530  0.36540403  0.17695446    -0.57400
O142        O  0.36584756  0.32111722  0.24998195    -0.57300
O143        O  0.38454707  0.27011311  0.23745944    -0.56500
O144        O  0.41317409  0.07953348  0.30418785    -0.57700
C145        C  0.48334773  0.10572439  0.37167949     0.74900
O146        O  0.38677502  0.13602884  0.35218483    -0.58900
C147        C  0.37959537  0.06203961  0.30115764     0.74900
C148        C  0.38107671  0.05743538  0.43381929     0.77300
Cd149      Cd  0.41480608  0.10031995  0.36709999     1.37500
O150        O  0.45647911  0.07989750  0.35609378    -0.57700
O151        O  0.37826335  0.04484546  0.40127594    -0.56500
C152        C  0.41496565  0.16306831  0.34003915     0.77200
O153        O  0.39807981  0.09128683  0.43581181    -0.58900
O154        O  0.47918299  0.13024013  0.38497084    -0.57400
O155        O  0.36185326  0.06144201  0.32947852    -0.57300
O156        O  0.44343901  0.16293881  0.34549647    -0.56500
C157        C  0.41259114  0.24013602  0.26522076    -0.06000
C158        C  0.44355901  0.24933993  0.28590845    -0.17200
C159        C  0.44454582  0.22584355  0.31215963     0.11200
C160        C  0.41414847  0.19151498  0.31759450    -0.06000
C161        C  0.38316849  0.18229999  0.29687113    -0.17200
C162        C  0.38213706  0.20589340  0.27074613     0.11200
S163        S  0.48494682  0.24208344  0.33895493    -0.32200
S164        S  0.34171492  0.18987680  0.24406419    -0.32200
H165        H  0.35915123  0.20652661  0.21029301     0.29200
H166        H  0.46735529  0.22581480  0.37279558     0.29200
H167        H  0.46691413  0.27574309  0.28278040     0.19800
H168        H  0.35987573  0.15583604  0.29981297     0.19800
C169        C  0.51754082  0.10659643  0.37401365    -0.06000
C170        C  0.54949032  0.13780501  0.36422688    -0.17200
C171        C  0.58184312  0.13829235  0.36253209     0.11200
C172        C  0.58217897  0.10649053  0.36929689    -0.06000
C173        C  0.55023429  0.07578256  0.38040398    -0.17200
C174        C  0.51845377  0.07577518  0.38373475     0.11200
S175        S  0.62168224  0.18052395  0.35334229    -0.32200
S176        S  0.48027946  0.03603592  0.40232898    -0.32200
H177        H  0.46661745  0.05422130  0.42216792     0.29200
H178        H  0.64198571  0.17584745  0.38096045     0.29200
H179        H  0.54922594  0.16188853  0.35765830     0.19800
H180        H  0.54991709  0.05139779  0.38696089     0.19800
C181        C  0.76399022  0.17985916  0.42639670    -0.06000
C182        C  0.75434164  0.19376425  0.45683768    -0.17200
C183        C  0.77945862  0.21744427  0.48284595     0.11200
C184        C  0.81583583  0.22866117  0.47842961    -0.06000
C185        C  0.82540401  0.21389185  0.44880527    -0.17200
C186        C  0.80021735  0.19001351  0.42288338     0.11200
S187        S  0.76292472  0.23125139  0.52163064    -0.32200
S188        S  0.81610265  0.17295181  0.38672227    -0.32200
H189        H  0.80475447  0.18652343  0.35747467     0.29200
H190        H  0.78622016  0.23022372  0.54820831     0.29200
H191        H  0.72667857  0.18575381  0.46088218     0.19800
H192        H  0.85310334  0.22200504  0.44481745     0.19800
C193        C  0.59109147  0.48192495  0.19946969    -0.06000
C194        C  0.58137967  0.46104697  0.23228470    -0.17200
C195        C  0.54970296  0.42776657  0.23401086     0.11200
C196        C  0.52647779  0.41538400  0.20266825    -0.06000
C197        C  0.53733668  0.43510129  0.16917911    -0.17200
C198        C  0.56941079  0.46777820  0.16703161     0.11200
S199        S  0.54077610  0.40212958  0.27666074    -0.32200
S200        S  0.58099982  0.48971925  0.12183155    -0.32200
H201        H  0.61735329  0.50092685  0.12465008     0.29200
H202        H  0.52290302  0.36869870  0.25872879     0.29200
H203        H  0.59819298  0.47095314  0.25699738     0.19800
H204        H  0.52014918  0.42557703  0.14470811     0.19800
C205        C  0.87882063  0.47394522  0.02251851    -0.06000
C206        C  0.86836237  0.45235280  0.05477620    -0.17200
C207        C  0.86780790  0.42008558  0.05551638     0.11200
C208        C  0.87978827  0.40968959  0.02375444    -0.06000
C209        C  0.88843218  0.43056125  0.99078950    -0.17200
C210        C  0.88759365  0.46212981  0.98970865     0.11200
S211        S  0.85280436  0.39454353  0.09838800    -0.32200
S212        S  0.90197658  0.48821305  0.94714562    -0.32200
H213        H  0.87193632  0.49187019  0.94523885     0.29200
H214        H  0.82893722  0.36261841  0.07972761     0.29200
H215        H  0.86134867  0.46118956  0.08004774     0.19800
H216        H  0.89718012  0.42300417  0.96586793     0.19800
C217        C  0.82683406  0.59245282  0.10159616    -0.06000
C218        C  0.81032574  0.56707822  0.13063066    -0.17200
C219        C  0.78786292  0.56936152  0.15703922     0.11200
C220        C  0.77992035  0.59675345  0.15385288    -0.06000
C221        C  0.79764433  0.62309506  0.12607849    -0.17200
C222        C  0.82121460  0.62160342  0.10050578     0.11200
S223        S  0.77106813  0.53700519  0.19463752    -0.32200
S224        S  0.84231647  0.65734956  0.06681664    -0.32200
H225        H  0.87684758  0.66756624  0.07913149     0.29200
H226        H  0.77261065  0.56103593  0.22191556     0.29200
H227        H  0.81536879  0.54537574  0.13336519     0.19800
H228        H  0.79224571  0.64456589  0.12333637     0.19800
C229        C  0.02574382  0.66172605  0.38000057    -0.06000
C230        C  0.03882877  0.67104174  0.41675640    -0.17200
C231        C  0.01576327  0.66040959  0.44771252     0.11200
C232        C  0.97836947  0.63924240  0.44231282    -0.06000
C233        C  0.96519806  0.63183482  0.40542591    -0.17200
C234        C  0.98826822  0.64298884  0.37437652     0.11200
S235        S  0.03594350  0.67494215  0.49338295    -0.32200
S236        S  0.96792242  0.63224228  0.32843073    -0.32200
H237        H  0.99340769  0.66487493  0.31197354     0.29200
H238        H  0.00947651  0.68126243  0.00675709     0.29200
H239        H  0.06733013  0.68592923  0.42158884     0.19800
H240        H  0.93670252  0.61616885  0.40069388     0.19800
C241        C  0.02091295  0.64949447  0.19665737    -0.06000
C242        C  0.02235766  0.67498911  0.17156269    -0.17200
C243        C  0.00129266  0.66453264  0.13922369     0.11200
C244        C  0.97789010  0.62780035  0.13224771    -0.06000
C245        C  0.97533067  0.60256165  0.15846423    -0.17200
C246        C  0.99601993  0.61300436  0.19083443     0.11200
S247        S  0.00752294  0.69910058  0.10694103    -0.32200
S248        S  0.98842278  0.57858325  0.22418590    -0.32200
H249        H  0.99386096  0.59969146  0.25618105     0.29200
H250        H  0.00890050  0.68086967  0.07511379     0.29200
H251        H  0.04137811  0.70308249  0.17606821     0.19800
H252        H  0.95654080  0.57438674  0.15408730     0.19800
C253        C  0.18508967  0.77736022  0.23321698    -0.06000
C254        C  0.21594637  0.77595866  0.22626240    -0.17200
C255        C  0.24270242  0.80023710  0.20190249     0.11200
C256        C  0.23884760  0.82685563  0.18387226    -0.06000
C257        C  0.20802463  0.82827451  0.19036845    -0.17200
C258        C  0.18143177  0.80427361  0.21509518     0.11200
S259        S  0.28076794  0.79571240  0.19237949    -0.32200
S260        S  0.14433559  0.81045384  0.22312865    -0.32200
H261        H  0.14320721  0.80440970  0.26213136     0.29200
H262        H  0.27156799  0.76695401  0.21692058     0.29200
H263        H  0.21864073  0.75498451  0.23907115     0.19800
H264        H  0.20530749  0.84917362  0.17728495     0.19800
C265        C  0.33973656  0.99264661  0.20799415    -0.06000
C266        C  0.36857983  0.02737304  0.20296001    -0.17200
C267        C  0.37965083  0.05226667  0.23180348     0.11200
C268        C  0.36232220  0.04175726  0.26695567    -0.06000
C269        C  0.33085969  0.00840112  0.27054633    -0.17200
C270        C  0.31948095  0.98348765  0.24140693     0.11200
S271        S  0.41653148  0.09661204  0.22230297    -0.32200
S272        S  0.28142140  0.93965578  0.25014648    -0.32200
H273        H  0.29585221  0.92076124  0.23340663     0.29200
H274        H  0.40537879  0.11377901  0.24743076     0.29200
H275        H  0.38331262  0.03479640  0.17672493     0.19800
H276        H  0.31696677  0.00044224  0.29725362     0.19800
C277        C  0.34519129  0.98225216  0.02653064    -0.06000
C278        C  0.36341916  0.01918045  0.03373753    -0.17200
C279        C  0.37426616  0.04456199  0.50470895     0.11200
C280        C  0.36634840  0.03287364  0.46696453    -0.06000
C281        C  0.34638417  0.99579941  0.46003834    -0.17200
C282        C  0.33627669  0.97061322  0.48904590     0.11200
S283        S  0.39884195  0.09138406  0.01667612    -0.32200
S284        S  0.31450661  0.92431842  0.47575412    -0.32200
H285        H  0.33622216  0.91687202  0.49850066     0.29200
H286        H  0.39723560  0.08730905  0.55603030     0.29200
H287        H  0.36991885  0.02830182  0.06250900     0.19800
H288        H  0.33990081  0.98609673  0.43142084     0.19800
C289        C  0.65987258  0.03092731  0.26003432    -0.06000
C290        C  0.64335797  0.03700899  0.22944205    -0.17200
C291        C  0.62743342  0.01217407  0.20021645     0.11200
C292        C  0.62827667  0.98011313  0.20051624    -0.06000
C293        C  0.64587853  0.97452769  0.23037937    -0.17200
C294        C  0.66203901  0.99957267  0.25970067     0.11200
S295        S  0.60451776  0.02237164  0.16475320    -0.32200
S296        S  0.68593619  0.99115552  0.29580160    -0.32200
H297        H  0.68513928  0.96190870  0.27836311     0.29200
H298        H  0.57372243  0.98812497  0.16550018     0.29200
H299        H  0.64115222  0.06058500  0.22912065     0.19800
H300        H  0.64724207  0.95050042  0.23054598     0.19800
C301        C  0.62864171  0.96882988  0.01015671    -0.06000
C302        C  0.60786294  0.95824760  0.47743281    -0.17200
C303        C  0.61906720  0.97934551  0.44527042     0.11200
C304        C  0.65177262  0.01208977  0.44575337    -0.06000
C305        C  0.67389543  0.02151214  0.47749833    -0.17200
C306        C  0.66231864  0.00055427  0.01011355     0.11200
S307        S  0.59004855  0.96320975  0.40485435    -0.32200
S308        S  0.68993745  0.01751807  0.05145346    -0.32200
H309        H  0.66161604  0.00904202  0.07624320     0.29200
H310        H  0.61771866  0.97830996  0.37815472     0.29200
H311        H  0.58227305  0.93354046  0.47715073     0.19800
H312        H  0.69889912  0.04679875  0.47811142     0.19800
C313        C  0.40750358  0.88423115  0.11965311    -0.06000
C314        C  0.41943007  0.88047937  0.08433884    -0.17200
C315        C  0.45035997  0.87855888  0.08088627     0.11200
C316        C  0.46985204  0.88053273  0.11352390    -0.06000
C317        C  0.45604962  0.88099700  0.14891638    -0.17200
C318        C  0.42499478  0.88245488  0.15233249     0.11200
S319        S  0.46443182  0.87332140  0.03477128    -0.32200
S320        S  0.40908760  0.88195729  0.19921090    -0.32200
H321        H  0.37276862  0.86328655  0.18939437     0.29200
H322        H  0.43904614  0.87681468  0.01396834     0.29200
H323        H  0.40544036  0.88075323  0.05934022     0.19800
H324        H  0.47028645  0.88164798  0.17413906     0.19800
C325        C  0.63484330  0.65921726  0.35304905    -0.06000
C326        C  0.63233255  0.67032026  0.31681075    -0.17200
C327        C  0.64592091  0.66171586  0.28543213     0.11200
C328        C  0.66255089  0.64135493  0.29044566    -0.06000
C329        C  0.66708991  0.63240442  0.32709999    -0.17200
C330        C  0.65354220  0.64103985  0.35835357     0.11200
S331        S  0.64145095  0.67700890  0.23955258    -0.32200
S332        S  0.66118477  0.62931256  0.40484058    -0.32200
H333        H  0.67774668  0.61051601  0.39354593     0.28000
H334        H  0.62583859  0.69653541  0.25144549     0.29200
H335        H  0.61849166  0.68468185  0.31298447     0.19800
H336        H  0.68039612  0.61756441  0.33123530     0.19800
C337        C  0.63571865  0.64267491  0.02916562    -0.06000
C338        C  0.66589510  0.66915362  0.04812526    -0.17200
C339        C  0.68040488  0.66049334  0.07836987     0.11200
C340        C  0.66346095  0.62470939  0.09092974    -0.06000
C341        C  0.63516544  0.59802506  0.06985936    -0.17200
C342        C  0.62175644  0.60649371  0.03867018     0.11200
S343        S  0.72045422  0.69620709  0.09921070    -0.32200
S344        S  0.58725242  0.56982112  0.01212444    -0.32200
H345        H  0.59966261  0.58655141  0.97695428     0.29200
H346        H  0.73641555  0.67554322  0.10395478     0.29200
H347        H  0.67773150  0.69691061  0.04004303     0.19800
H348        H  0.62273371  0.57024647  0.07808978     0.19800
C349        C  0.59084456  0.76834250  0.00383340    -0.06000
C350        C  0.60972308  0.77888343  0.03812350    -0.17200
C351        C  0.60712056  0.80239262  0.06294175     0.11200
C352        C  0.58490105  0.81598091  0.05385003    -0.06000
C353        C  0.56673133  0.80613920  0.01919658    -0.17200
C354        C  0.57010556  0.78347189  0.99391983     0.11200
S355        S  0.63176260  0.81270324  0.10628929    -0.32200
S356        S  0.54827851  0.77625734  0.94906277    -0.32200
H357        H  0.57783872  0.78096347  0.92845774     0.29200
H358        H  0.60438566  0.81105306  0.12849994     0.29200
H359        H  0.62598638  0.76795946  0.54636228     0.19800
H360        H  0.55064360  0.81731866  0.01093676     0.19800
C361        C  0.36053484  0.34584543  0.11371277    -0.06000
C362        C  0.36086944  0.33352131  0.07745407    -0.17200
C363        C  0.34825860  0.34372471  0.04624657     0.11200
C364        C  0.33510435  0.36716434  0.05130892    -0.06000
C365        C  0.33269922  0.37747115  0.08798186    -0.17200
C366        C  0.34465954  0.36677286  0.11902116     0.11200
S367        S  0.34954845  0.32656698  0.00042215    -0.32200
S368        S  0.33843272  0.38060108  0.16471984    -0.32200
H369        H  0.33102274  0.34899705  0.18321411     0.29200
H370        H  0.35842928  0.30152790  0.51268446     0.29200
H371        H  0.37248210  0.31710110  0.07334645     0.19800
H372        H  0.32203963  0.39469258  0.09259237     0.19800
C373        C  0.34368550  0.38047926  0.36000470    -0.06000
C374        C  0.36711446  0.40668334  0.33460792    -0.17200
C375        C  0.37880037  0.39761354  0.30254566     0.11200
C376        C  0.36737989  0.36146966  0.29592943    -0.06000
C377        C  0.34248692  0.33503780  0.32016415    -0.17200
C378        C  0.33094104  0.34415318  0.35247464     0.11200
S379        S  0.40759834  0.43336668  0.27099679    -0.32200
S380        S  0.30256837  0.30851554  0.38423780    -0.32200
H381        H  0.32157155  0.32683641  0.41666137     0.29200
H382        H  0.39335916  0.41318884  0.23801009     0.29200
H383        H  0.37627179  0.43456210  0.33960463     0.19800
H384        H  0.33370263  0.30724415  0.31521921     0.19800
C385        C  0.40355784  0.52859201  0.46472027    -0.06000
C386        C  0.41191225  0.55060568  0.43290321    -0.17200
C387        C  0.44438350  0.58288145  0.42993183     0.11200
C388        C  0.46992311  0.59309889  0.45898473    -0.06000
C389        C  0.46022863  0.57231830  0.49203253    -0.17200
C390        C  0.42770203  0.54021705  0.49507827     0.11200
S391        S  0.45131236  0.60923992  0.38830124    -0.32200
S392        S  0.42044643  0.51382941  0.03677624    -0.32200
H393        H  0.41057720  0.48221035  0.01701726     0.29200
H394        H  0.46660557  0.64173661  0.40798549     0.29200
H395        H  0.39317631  0.54224065  0.40975940     0.19800
H396        H  0.47902687  0.57980112  0.01492996     0.19800
C397        C  0.03398816  0.37383579  0.17701184    -0.06000
C398        C  0.04147217  0.39667829  0.14612953    -0.17200
C399        C  0.01700376  0.38799847  0.11667607     0.11200
C400        C  0.98406734  0.35491133  0.11700599    -0.06000
C401        C  0.97748350  0.33122721  0.14689387    -0.17200
C402        C  0.00190029  0.34010803  0.17663852     0.11200
S403        S  0.02899220  0.42166619  0.08098123    -0.32200
S404        S  0.99193325  0.30748450  0.21325128    -0.32200
H405        H  0.95749745  0.28193585  0.20098541     0.29200
H406        H  0.99688867  0.42152905  0.08429978     0.29200
H407        H  0.06573078  0.42262953  0.14595830     0.19800
H408        H  0.95302225  0.30551463  0.14691392     0.19800
C409        C  0.01196581  0.36487775  0.36171930    -0.06000
C410        C  0.02011786  0.35016202  0.39245476    -0.17200
C411        C  0.99961922  0.34042284  0.42514546     0.11200
C412        C  0.96969397  0.34454373  0.42662625    -0.06000
C413        C  0.96022166  0.35685601  0.39483357    -0.17200
C414        C  0.98078419  0.36675307  0.36234888     0.11200
S415        S  0.01508953  0.32623862  0.46472769    -0.32200
S416        S  0.96575908  0.38154293  0.32285941    -0.32200
H417        H  0.97862557  0.36788540  0.29535896     0.29200
H418        H  0.01144497  0.34851473  0.99068181     0.29200
H419        H  0.04413733  0.34878583  0.39215483     0.19800
H420        H  0.93668091  0.35907519  0.39535112     0.19800
C421        C  0.12674107  0.59943568  0.28371670    -0.06000
C422        C  0.12324279  0.58144570  0.31765443    -0.17200
C423        C  0.12140990  0.54852739  0.31825891     0.11200
C424        C  0.12225766  0.53246506  0.28404903    -0.06000
C425        C  0.12898848  0.55187413  0.25052745    -0.17200
C426        C  0.13177932  0.58527756  0.25003665     0.11200
S427        S  0.11787843  0.52847629  0.36365685    -0.32200
S428        S  0.14160065  0.60816561  0.20546609    -0.32200
H429        H  0.16293360  0.64238841  0.22102754     0.29200
H430        H  0.13859150  0.51356294  0.35381360     0.29200
H431        H  0.12039372  0.59230298  0.34388239     0.19800
H432        H  0.13087816  0.54043964  0.22425902     0.19800
C433        C  0.17905327  0.42005711  0.34750071    -0.06000
C434        C  0.17821010  0.38780866  0.35319713    -0.17200
C435        C  0.20098109  0.38518218  0.37922576     0.11200
C436        C  0.22483556  0.41526944  0.40109490    -0.06000
C437        C  0.22519605  0.44727406  0.39561694    -0.17200
C438        C  0.20322043  0.45016208  0.36905172     0.11200
S439        S  0.19938724  0.34323082  0.38163236    -0.32200
S440        S  0.20874884  0.49372504  0.36305431    -0.32200
H441        H  0.20553709  0.49136346  0.32363696     0.29200
H442        H  0.23625723  0.35877265  0.37585872     0.29200
H443        H  0.15965887  0.36441299  0.33724761     0.19800
H444        H  0.24367874  0.47082362  0.41141861     0.19800
O445        O  0.04418629  0.41113186  0.81695314    -0.57700
C446        C  0.11341756  0.49488353  0.78209256     0.74900
O447        O  0.13944529  0.40136522  0.79322319    -0.58900
C448        C  0.03909501  0.38278800  0.83249057     0.74900
C449        C  0.05728224  0.38805340  0.71106712     0.77300
Cd450      Cd  0.09494706  0.42130273  0.78111093     1.37500
O451        O  0.09119316  0.47159497  0.80451663    -0.57700
O452        O  0.08907047  0.41445212  0.71014724    -0.56500
C453        C  0.15234958  0.42087474  0.82220826     0.77200
O454        O  0.04526000  0.37602713  0.74338770    -0.58900
O455        O  0.12666244  0.48401529  0.75752120    -0.57400
O456        O  0.05970280  0.37173636  0.82335829    -0.57300
O457        O  0.14013097  0.44067400  0.82961146    -0.56500
O458        O  0.35474066  0.42300843  0.90725189    -0.57700
C459        C  0.37194058  0.49230032  0.96294781     0.74900
O460        O  0.25090902  0.38869439  0.94005620    -0.58900
C461        C  0.33362924  0.39257543  0.89357310     0.74900
C462        C  0.32607599  0.38327571  0.51928312     0.77300
Cd463      Cd  0.31577356  0.41955233  0.95637059     1.37500
O464        O  0.36382886  0.47524259  0.93237339    -0.57700
O465        O  0.33752713  0.38420465  0.98653662    -0.56500
C466        C  0.25294461  0.41620074  0.92563298     0.77200
O467        O  0.30796691  0.39830520  0.52332639    -0.58900
O468        O  0.35247415  0.47623168  0.99122336    -0.57400
O469        O  0.30377038  0.37397599  0.90962505    -0.57300
O470        O  0.28170228  0.44522118  0.93151338    -0.56500
O471        O  0.58482454  0.63467806  0.49592410    -0.57700
C472        C  0.50769843  0.62223763  0.95502213     0.74900
O473        O  0.60956071  0.72633535  0.99196108    -0.58900
C474        C  0.61794743  0.65381092  0.50208335     0.74900
C475        C  0.61625287  0.66504831  0.88449039     0.77300
Cd476      Cd  0.58276282  0.67400464  0.95027061     1.37500
O477        O  0.52887612  0.63074502  0.98246924    -0.57700
O478        O  0.61264361  0.69202352  0.88675672    -0.56500
C479        C  0.59047540  0.73889617  0.98207808     0.77200
O480        O  0.60255853  0.64255436  0.91068274    -0.58900
O481        O  0.52126026  0.63862972  0.92444300    -0.57400
O482        O  0.63472363  0.68335701  0.98491184    -0.57300
O483        O  0.56984492  0.72333038  0.45452576    -0.56500
O484        O  0.58012763  0.93350661  0.55041646    -0.57700
C485        C  0.50620097  0.88616490  0.61135565     0.74900
O486        O  0.60685671  0.86561060  0.59782207    -0.58900
C487        C  0.61294203  0.94697844  0.54374435     0.74900
C488        C  0.61231742  0.95308362  0.66961526     0.77300
Cd489      Cd  0.57899988  0.90332639  0.60686376     1.37500
O490        O  0.52708174  0.90440525  0.58503352    -0.57700
O491        O  0.60878746  0.96197358  0.63687126    -0.56500
C492        C  0.58195482  0.84276410  0.57712190     0.77200
O493        O  0.60158863  0.92014599  0.67409725    -0.58900
O494        O  0.51878961  0.87492396  0.63644064    -0.57400
O495        O  0.63080936  0.94038794  0.56688908    -0.57300
O496        O  0.55468172  0.84550134  0.57498633    -0.56500
O497        O  0.38111987  0.91558632  0.64565134    -0.57700
C498        C  0.33463285  0.96623693  0.67975859     0.74900
O499        O  0.31212526  0.92563704  0.56047496    -0.58900
C500        C  0.37968022  0.89381560  0.62135909     0.74900
C501        C  0.26833036  0.85563393  0.66186673     0.77300
Cd502      Cd  0.32784844  0.91561351  0.62585290     1.37500
O503        O  0.36066322  0.96319293  0.66973198    -0.57700
O504        O  0.29996189  0.87014580  0.67371068    -0.56500
C505        C  0.33783486  0.95782392  0.55904298     0.77200
O506        O  0.26354269  0.86789801  0.63140218    -0.58900
O507        O  0.30479441  0.94580531  0.66446541    -0.57400
O508        O  0.35410945  0.88199242  0.59808222    -0.57300
O509        O  0.35766616  0.96899175  0.58766381    -0.56500
O510        O  0.10853347  0.63729984  0.75513239    -0.57700
C511        C  0.04757083  0.66117533  0.72652276     0.74900
O512        O  0.08353131  0.69510033  0.84925186    -0.58900
C513        C  0.11996049  0.62940651  0.78397273     0.74900
C514        C  0.15598058  0.74758768  0.75523002     0.77300
Cd515      Cd  0.09775265  0.68118820  0.78481229     1.37500
O516        O  0.06033971  0.64217238  0.73629453    -0.57700
O517        O  0.12385119  0.73900568  0.75185978    -0.56500
C518        C  0.05138563  0.66939985  0.84875702     0.77200
O519        O  0.16156188  0.72753695  0.77629388    -0.58900
O520        O  0.05920522  0.69072484  0.74312567    -0.57400
O521        O  0.12272975  0.64680350  0.81360908    -0.57300
O522        O  0.04228194  0.64966111  0.82020603    -0.56500
O523        O  0.90464286  0.52908102  0.55443834    -0.57700
C524        C  0.95505775  0.61421447  0.59891045     0.74900
O525        O  0.92063441  0.61232073  0.97325320    -0.58900
C526        C  0.88656426  0.51077747  0.52666229     0.74900
C527        C  0.85115349  0.58828562  0.57536297     0.77300
Cd528      Cd  0.90748514  0.58382682  0.53783322     1.37500
O529        O  0.94553939  0.58360794  0.58618336    -0.57700
O530        O  0.85437924  0.56123427  0.57740396    -0.56500
C531        C  0.95330049  0.62145854  0.97420680     0.77200
O532        O  0.87090206  0.61150903  0.55125584    -0.58900
O533        O  0.94315839  0.63157618  0.58232256    -0.57400
O534        O  0.87646458  0.52590772  0.50342514    -0.57300
O535        O  0.96343194  0.61315595  0.50370255    -0.56500
O536        O  0.66055554  0.58148060  0.63374853    -0.57700
C537        C  0.62262739  0.51860806  0.70012306     0.74900
O538        O  0.74645088  0.62284278  0.67588419    -0.58900
C539        C  0.67215611  0.61403378  0.62674009     0.74900
C540        C  0.67244360  0.62621025  0.75842788     0.77300
Cd541      Cd  0.68341619  0.59013915  0.69646586     1.37500
O542        O  0.62452757  0.54256619  0.67867686    -0.57700
O543        O  0.66121299  0.62526791  0.72559680    -0.56500
C544        C  0.74972339  0.59578291  0.67414621     0.77200
O545        O  0.69090850  0.61164955  0.76274000    -0.58900
O546        O  0.64882891  0.52797011  0.72211857    -0.57400
O547        O  0.68970117  0.63609180  0.65257566    -0.57300
O548        O  0.72411272  0.56722010  0.68753972    -0.56500
O549        O  0.61584985  0.07884512  0.88319121    -0.57700
C550        C  0.66047127  0.03907476  0.91662847     0.74900
O551        O  0.67461658  0.04562566  0.82557681    -0.58900
C552        C  0.61451477  0.10351212  0.86613961     0.74900
C553        C  0.73478124  0.15242999  0.90212145     0.77300
Cd554      Cd  0.67474777  0.09294758  0.86337598     1.37500
O555        O  0.63622021  0.04241648  0.90143682    -0.57700
O556        O  0.73933348  0.14279864  0.86996156    -0.56500
C557        C  0.66995873  0.05503375  0.79358334     0.77200
O558        O  0.70301658  0.13657912  0.91361831    -0.58900
O559        O  0.69226618  0.06088758  0.90673173    -0.57400
O560        O  0.64159111  0.12416704  0.84632799    -0.57300
O561        O  0.67162652  0.08491582  0.79263876    -0.56500
O562        O  0.90190830  0.37458920  0.49692617    -0.57700
C563        C  0.94825302  0.33770851  0.96055819     0.74900
O564        O  0.92471914  0.31830799  0.59008890    -0.58900
C565        C  0.88708859  0.37993014  0.52455464     0.74900
C566        C  0.84499060  0.25885925  0.00004539     0.77300
Cd567      Cd  0.90610505  0.32589565  0.52482533     1.37500
O568        O  0.93322531  0.35533284  0.96693388    -0.57700
O569        O  0.84110199  0.28232333  0.01638073    -0.56500
C570        C  0.95671329  0.34397069  0.58659889     0.77200
O571        O  0.87623396  0.26420603  0.50036706    -0.58900
O572        O  0.94353878  0.31408436  0.98435337    -0.57400
O573        O  0.88034942  0.35943756  0.55261467    -0.57300
O574        O  0.96420090  0.35975635  0.55532341    -0.56500
O575        O  0.41569003  0.37054563  0.75734192    -0.57700
C576        C  0.48937751  0.38499030  0.70512557     0.74900
O577        O  0.44049387  0.29378336  0.72777371    -0.58900
C578        C  0.38336166  0.35081663  0.76647087     0.74900
C579        C  0.37960608  0.33958955  0.64468099     0.77300
Cd580      Cd  0.41525335  0.33129215  0.70960775     1.37500
O581        O  0.47144809  0.37873119  0.73502689    -0.57700
O582        O  0.39479326  0.36250737  0.67017716    -0.56500
C583        C  0.41226928  0.26842096  0.74197564     0.77200
O584        O  0.38233846  0.31206326  0.64717570    -0.58900
O585        O  0.47322145  0.36536953  0.67697965    -0.57400
O586        O  0.36584175  0.32109335  0.74995799    -0.57300
O587        O  0.38452792  0.27009816  0.73736657    -0.56500
O588        O  0.41314464  0.07955091  0.80414830    -0.57700
C589        C  0.48334559  0.10572442  0.87159947     0.74900
O590        O  0.38672462  0.13598832  0.85213416    -0.58900
C591        C  0.37956519  0.06203646  0.80112950     0.74900
C592        C  0.38105668  0.05741772  0.93377988     0.77300
Cd593      Cd  0.41479032  0.10031516  0.86706712     1.37500
O594        O  0.45646483  0.07988766  0.85604123    -0.57700
O595        O  0.37825497  0.04483802  0.90123380    -0.56500
C596        C  0.41491704  0.16306095  0.84004586     0.77200
O597        O  0.39806024  0.09126875  0.93578223    -0.58900
O598        O  0.47919000  0.13024964  0.88487916    -0.57400
O599        O  0.36182624  0.06141764  0.82946284    -0.57300
O600        O  0.44339965  0.16295668  0.84553447    -0.56500
C601        C  0.41255726  0.24016453  0.76527599    -0.06000
C602        C  0.44351189  0.24936562  0.78598857    -0.17200
C603        C  0.44448763  0.22586017  0.81223399     0.11200
C604        C  0.41409649  0.19152117  0.81763122    -0.06000
C605        C  0.38312254  0.18231598  0.79690117    -0.17200
C606        C  0.38209714  0.20592277  0.77079077     0.11200
S607        S  0.48486558  0.24210140  0.83907119    -0.32200
S608        S  0.34166956  0.18992570  0.74412429    -0.32200
H609        H  0.35910956  0.20650223  0.71032969     0.29200
H610        H  0.46724519  0.22579837  0.87288898     0.29200
H611        H  0.46686720  0.27577150  0.78288090     0.19800
H612        H  0.35982943  0.15585020  0.79982671     0.19800
C613        C  0.51753711  0.10658959  0.87393119    -0.06000
C614        C  0.54948708  0.13777885  0.86409951    -0.17200
C615        C  0.58183641  0.13825654  0.86243222     0.11200
C616        C  0.58216689  0.10646150  0.86925996    -0.06000
C617        C  0.55022362  0.07577405  0.88040922    -0.17200
C618        C  0.51844780  0.07578057  0.88372024     0.11200
S619        S  0.62168480  0.18047316  0.85321495    -0.32200
S620        S  0.48027870  0.03608264  0.90238877    -0.32200
H621        H  0.46664559  0.05431456  0.92218913     0.29200
H622        H  0.64198401  0.17581068  0.88085037     0.29200
H623        H  0.54922731  0.16185649  0.85748480     0.19800
H624        H  0.54990592  0.05139834  0.88701876     0.19800
C625        C  0.76399347  0.17985889  0.92639359    -0.06000
C626        C  0.75434329  0.19377344  0.95682453    -0.17200
C627        C  0.77946108  0.21747488  0.98281902     0.11200
C628        C  0.81584044  0.22869907  0.97840189    -0.06000
C629        C  0.82540994  0.21392009  0.94878860    -0.17200
C630        C  0.80022384  0.19002608  0.92287685     0.11200
S631        S  0.76292477  0.23130235  0.02158373    -0.32200
S632        S  0.81611768  0.17297063  0.88671831    -0.32200
H633        H  0.80474920  0.18652155  0.85746924     0.29200
H634        H  0.78622042  0.23029118  0.04817311     0.29200
H635        H  0.72667873  0.18575684  0.96087009     0.19800
H636        H  0.85311064  0.22203941  0.94479895     0.19800
C637        C  0.59109858  0.48191475  0.69945166    -0.06000
C638        C  0.58136390  0.46107488  0.73229668    -0.17200
C639        C  0.54967874  0.42780307  0.73404388     0.11200
C640        C  0.52647180  0.41538809  0.70268758    -0.06000
C641        C  0.53734537  0.43507032  0.66917855    -0.17200
C642        C  0.56942321  0.46773951  0.66701266     0.11200
S643        S  0.54071598  0.40222037  0.77673978    -0.32200
S644        S  0.58101466  0.48963325  0.62178782    -0.32200
H645        H  0.61735421  0.50078119  0.62459598     0.29200
H646        H  0.52284837  0.36876595  0.75885564     0.29200
H647        H  0.59816551  0.47100453  0.75701581     0.19800
H648        H  0.52016568  0.42552382  0.64470250     0.19800
C649        C  0.87879772  0.47390257  0.52253065    -0.06000
C650        C  0.86834515  0.45230883  0.55478722    -0.17200
C651        C  0.86780534  0.42004919  0.55552853     0.11200
C652        C  0.87979689  0.40966091  0.52376974    -0.06000
C653        C  0.88843115  0.43052945  0.49080315    -0.17200
C654        C  0.88757060  0.46208750  0.48971858     0.11200
S655        S  0.85279589  0.39450204  0.59839656    -0.32200
S656        S  0.90191067  0.48815118  0.44714138    -0.32200
H657        H  0.87184137  0.49176091  0.44524370     0.29200
H658        H  0.82894747  0.36257396  0.57972947     0.29200
H659        H  0.86132254  0.46113815  0.58005802     0.19800
H660        H  0.89718211  0.42297524  0.46588188     0.19800
C661        C  0.82682911  0.59246016  0.60155638    -0.06000
C662        C  0.81033821  0.56710360  0.63060897    -0.17200
C663        C  0.78788927  0.56940120  0.65702332     0.11200
C664        C  0.77993439  0.59678311  0.65381933    -0.06000
C665        C  0.79764321  0.62310952  0.62602622    -0.17200
C666        C  0.82120605  0.62160790  0.60045096     0.11200
S667        S  0.77113224  0.53707839  0.69465314    -0.32200
S668        S  0.84229013  0.65733363  0.56673688    -0.32200
H669        H  0.87682587  0.66758049  0.57906299     0.29200
H670        H  0.77269927  0.56113468  0.72191310     0.29200
H671        H  0.81538910  0.54540728  0.63335697     0.19800
H672        H  0.79223839  0.64457521  0.62327148     0.19800
C673        C  0.02576665  0.66173096  0.87998880    -0.06000
C674        C  0.03885399  0.67105724  0.91674242    -0.17200
C675        C  0.01579039  0.66043759  0.94769946     0.11200
C676        C  0.97839513  0.63927609  0.94230237    -0.06000
C677        C  0.96522291  0.63185897  0.90541588    -0.17200
C678        C  0.98829145  0.64299590  0.87436601     0.11200
S679        S  0.03597640  0.67497581  0.99336650    -0.32200
S680        S  0.96794376  0.63222659  0.82842140    -0.32200
H681        H  0.99343566  0.66484407  0.81194262     0.29200
H682        H  0.00943415  0.68121274  0.50677782     0.29200
H683        H  0.06735578  0.68594160  0.92157277     0.19800
H684        H  0.93672713  0.61619535  0.90068489     0.19800
C685        C  0.02093322  0.64949758  0.69666575    -0.06000
C686        C  0.02237394  0.67498884  0.67156878    -0.17200
C687        C  0.00128868  0.66452758  0.63924401     0.11200
C688        C  0.97788078  0.62779403  0.63227810    -0.06000
C689        C  0.97532253  0.60256038  0.65850037    -0.17200
C690        C  0.99602394  0.61300851  0.69086238     0.11200
S691        S  0.00749327  0.69909095  0.60696875    -0.32200
S692        S  0.98842075  0.57859690  0.72423037    -0.32200
H693        H  0.99388173  0.59972286  0.75621600     0.29200
H694        H  0.00883604  0.68085429  0.57512924     0.29200
H695        H  0.04140172  0.70308218  0.67606335     0.19800
H696        H  0.95652426  0.57438585  0.65413340     0.19800
C697        C  0.18508765  0.77734313  0.73321439    -0.06000
C698        C  0.21599505  0.77600842  0.72636133    -0.17200
C699        C  0.24275578  0.80028697  0.70200686     0.11200
C700        C  0.23885439  0.82683759  0.68388395    -0.06000
C701        C  0.20798218  0.82818973  0.69027853    -0.17200
C702        C  0.18138235  0.80418841  0.71499713     0.11200
S703        S  0.28089511  0.79585262  0.69261250    -0.32200
S704        S  0.14421205  0.81028015  0.72289225    -0.32200
H705        H  0.14304440  0.80429863  0.76191088     0.29200
H706        H  0.27165883  0.76705659  0.71711017     0.29200
H707        H  0.21872830  0.75508707  0.73924728     0.19800
H708        H  0.20522909  0.84903827  0.67712071     0.19800
C709        C  0.33970334  0.99263139  0.70797645    -0.06000
C710        C  0.36857210  0.02734401  0.70294988    -0.17200
C711        C  0.37964138  0.05224567  0.73178330     0.11200
C712        C  0.36229108  0.04175591  0.76692527    -0.06000
C713        C  0.33080330  0.00841784  0.77050415    -0.17200
C714        C  0.31942005  0.98349812  0.74136894     0.11200
S715        S  0.41654839  0.09657585  0.72228285    -0.32200
S716        S  0.28130970  0.93969384  0.75008885    -0.32200
H717        H  0.29568792  0.92075155  0.73334903     0.29200
H718        H  0.40537756  0.11376568  0.74735754     0.29200
H719        H  0.38332476  0.03475058  0.67672759     0.19800
H720        H  0.31688885  0.00047597  0.79719996     0.19800
C721        C  0.34519130  0.98227692  0.52657894    -0.06000
C722        C  0.36352871  0.01920992  0.53377795    -0.17200
C723        C  0.37414149  0.04453164  0.00466878     0.11200
C724        C  0.36632213  0.03284432  0.96691659    -0.06000
C725        C  0.34646214  0.99576765  0.95998013    -0.17200
C726        C  0.33636821  0.97058520  0.98898908     0.11200
S727        S  0.39916599  0.09141240  0.51670314    -0.32200
S728        S  0.31472798  0.92429793  0.97569556    -0.32200
H729        H  0.33641781  0.91690422  0.99855030     0.29200
H730        H  0.39741910  0.08728030  0.05599497     0.29200
H731        H  0.37012699  0.02833615  0.56253858     0.19800
H732        H  0.34005314  0.98606409  0.93135735     0.19800
C733        C  0.65987056  0.03087583  0.76008299    -0.06000
C734        C  0.64349667  0.03705575  0.72942552    -0.17200
C735        C  0.62758520  0.01225331  0.70016998     0.11200
C736        C  0.62830014  0.98012306  0.70050638    -0.06000
C737        C  0.64576521  0.97443904  0.73043917    -0.17200
C738        C  0.66190986  0.99944945  0.75979153     0.11200
S739        S  0.60485565  0.02259269  0.66461715    -0.32200
S740        S  0.68561470  0.99088581  0.79599277    -0.32200
H741        H  0.68485007  0.96166814  0.77852104     0.29200
H742        H  0.57395485  0.98842253  0.66535777     0.29200
H743        H  0.64139068  0.06068943  0.72907046     0.19800
H744        H  0.64702735  0.95035558  0.73064344     0.19800
C745        C  0.62868344  0.96880826  0.51009559    -0.06000
C746        C  0.60787320  0.95823460  0.97745570    -0.17200
C747        C  0.61909128  0.97933774  0.94529708     0.11200
C748        C  0.65176139  0.01211488  0.94581843    -0.06000
C749        C  0.67383002  0.02158643  0.97761027    -0.17200
C750        C  0.66240344  0.00047834  0.51000272     0.11200
S751        S  0.59013646  0.96316580  0.90483288    -0.32200
S752        S  0.69011360  0.01737309  0.55128639    -0.32200
H753        H  0.66186319  0.00894636  0.57616105     0.29200
H754        H  0.61784187  0.97832158  0.87817594     0.29200
H755        H  0.58231451  0.93349351  0.97713726     0.19800
H756        H  0.69879891  0.04690589  0.97825444     0.19800
C757        C  0.40749782  0.88418946  0.61962675    -0.06000
C758        C  0.41940693  0.88042367  0.58430678    -0.17200
C759        C  0.45033589  0.87850166  0.58083945     0.11200
C760        C  0.46984469  0.88048873  0.61346749    -0.06000
C761        C  0.45605706  0.88096141  0.64886551    -0.17200
C762        C  0.42500448  0.88242025  0.65229705     0.11200
S763        S  0.46438369  0.87324399  0.53471979    -0.32200
S764        S  0.40912214  0.88193238  0.69918485    -0.32200
H765        H  0.37279818  0.86324284  0.68938907     0.29200
H766        H  0.43901632  0.87677538  0.51392632     0.29200
H767        H  0.40540425  0.88068689  0.55931453     0.19800
H768        H  0.47030544  0.88162071  0.67408189     0.19800
C769        C  0.63483899  0.65920908  0.85299505    -0.06000
C770        C  0.63226772  0.67026931  0.81675409    -0.17200
C771        C  0.64583022  0.66165211  0.78536161     0.11200
C772        C  0.66250286  0.64133134  0.79036500    -0.06000
C773        C  0.66709683  0.63242026  0.82701555    -0.17200
C774        C  0.65356649  0.64105819  0.85828129     0.11200
S775        S  0.64127888  0.67687917  0.73947732    -0.32200
S776        S  0.66126991  0.62936828  0.90475935    -0.32200
H777        H  0.67771149  0.61046296  0.89343954     0.28000
H778        H  0.62569159  0.69642526  0.75138362     0.29200
H779        H  0.61839753  0.68460305  0.81293799     0.19800
H780        H  0.68043401  0.61760883  0.83113986     0.19800
C781        C  0.63574602  0.64274859  0.52915933    -0.06000
C782        C  0.66590828  0.66922060  0.54814047    -0.17200
C783        C  0.68041217  0.66054371  0.57837624     0.11200
C784        C  0.66347531  0.62474958  0.59090196    -0.06000
C785        C  0.63519602  0.59807467  0.56980665    -0.17200
C786        C  0.62179417  0.60656189  0.53862598     0.11200
S787        S  0.72044534  0.69624932  0.59925098    -0.32200
S788        S  0.58731061  0.56990830  0.51204018    -0.32200
H789        H  0.59970798  0.58668558  0.47688887     0.29200
H790        H  0.73641387  0.67559092  0.60398417     0.29200
H791        H  0.67773468  0.69698282  0.54008380     0.19800
H792        H  0.62277079  0.57029018  0.57801199     0.19800
C793        C  0.59084746  0.76839141  0.50379429    -0.06000
C794        C  0.60976218  0.77896054  0.53806081    -0.17200
C795        C  0.60715691  0.80246088  0.56288788     0.11200
C796        C  0.58489723  0.81601027  0.55382828    -0.06000
C797        C  0.56669371  0.80614214  0.51919431    -0.17200
C798        C  0.57007201  0.78348580  0.49390773     0.11200
S799        S  0.63185449  0.81281421  0.60620102    -0.32200
S800        S  0.54821140  0.77624837  0.44906789    -0.32200
H801        H  0.57775287  0.78093747  0.42843864     0.29200
H802        H  0.60446724  0.81109124  0.62845502     0.29200
H803        H  0.62591728  0.76785511  0.04644860     0.19800
H804        H  0.55057729  0.81729463  0.51095379     0.19800
C805        C  0.36055395  0.34582832  0.61367463    -0.06000
C806        C  0.36093999  0.33356080  0.57740179    -0.17200
C807        C  0.34831693  0.34376505  0.54620630     0.11200
C808        C  0.33510843  0.36715696  0.55129492    -0.06000
C809        C  0.33264997  0.37740090  0.58798120    -0.17200
C810        C  0.34461430  0.36669257  0.61900889     0.11200
S811        S  0.34966348  0.32666964  0.50036430    -0.32200
S812        S  0.33830758  0.38042098  0.66472899    -0.32200
H813        H  0.33096730  0.34882028  0.68318004     0.29200
H814        H  0.35835466  0.30145872  0.01275577     0.29200
H815        H  0.37260133  0.31718654  0.57327506     0.19800
H816        H  0.32194320  0.39457874  0.59261253     0.19800
C817        C  0.34367491  0.38044149  0.85998895    -0.06000
C818        C  0.36709984  0.40664891  0.83459307    -0.17200
C819        C  0.37879271  0.39758670  0.80253249     0.11200
C820        C  0.36736802  0.36144347  0.79590470    -0.06000
C821        C  0.34248193  0.33500711  0.82014106    -0.17200
C822        C  0.33094181  0.34411734  0.85245978     0.11200
S823        S  0.40762098  0.43335380  0.77101234    -0.32200
S824        S  0.30259953  0.30847860  0.88423645    -0.32200
H825        H  0.32161166  0.32681352  0.91665049     0.29200
H826        H  0.39337576  0.41320463  0.73800960     0.29200
H827        H  0.37625558  0.43452682  0.83959309     0.19800
H828        H  0.33370295  0.30721507  0.81519323     0.19800
C829        C  0.40353399  0.52858399  0.96468721    -0.06000
C830        C  0.41187865  0.55060316  0.93287467    -0.17200
C831        C  0.44434630  0.58288573  0.92990511     0.11200
C832        C  0.46989389  0.59309624  0.95894849    -0.06000
C833        C  0.46020116  0.57231841  0.99199739    -0.17200
C834        C  0.42767704  0.54021725  0.99504640     0.11200
S835        S  0.45125808  0.60926658  0.88829717    -0.32200
S836        S  0.42046730  0.51381725  0.53679990    -0.32200
H837        H  0.41055947  0.48219170  0.51703522     0.29200
H838        H  0.46658544  0.64175689  0.90799709     0.29200
H839        H  0.39313841  0.54223847  0.90973506     0.19800
H840        H  0.47905372  0.57980010  0.51496567     0.19800
C841        C  0.03403903  0.37384560  0.67698400    -0.06000
C842        C  0.04148193  0.39669779  0.64611856    -0.17200
C843        C  0.01699133  0.38800676  0.61668597     0.11200
C844        C  0.98407630  0.35490012  0.61701959    -0.06000
C845        C  0.97752912  0.33121229  0.64689200    -0.17200
C846        C  0.00196769  0.34010330  0.67661578     0.11200
S847        S  0.02891776  0.42168494  0.58101633    -0.32200
S848        S  0.99205358  0.30746794  0.71319951    -0.32200
H849        H  0.95753308  0.28200351  0.70107683     0.29200
H850        H  0.99675671  0.42143912  0.58430360     0.29200
H851        H  0.06572374  0.42266256  0.64594631     0.19800
H852        H  0.95308603  0.30548383  0.64690897     0.19800
C853        C  0.01200774  0.36495380  0.86168482    -0.06000
C854        C  0.02016156  0.35025474  0.89243436    -0.17200
C855        C  0.99966403  0.34052975  0.92512472     0.11200
C856        C  0.96973223  0.34464006  0.92659146    -0.06000
C857        C  0.96026408  0.35694773  0.89479169    -0.17200
C858        C  0.98082870  0.36683548  0.86230722     0.11200
S859        S  0.01514621  0.32638041  0.96472615    -0.32200
S860        S  0.96580672  0.38161797  0.82280854    -0.32200
H861        H  0.97865136  0.36793035  0.79531770     0.29200
H862        H  0.01142837  0.34838881  0.49069630     0.29200
H863        H  0.04418170  0.34887963  0.89214448     0.19800
H864        H  0.93672247  0.35916552  0.89530196     0.19800
C865        C  0.12674450  0.59941994  0.78368317    -0.06000
C866        C  0.12320672  0.58141162  0.81761661    -0.17200
C867        C  0.12137041  0.54849338  0.81822007     0.11200
C868        C  0.12226068  0.53245310  0.78401167    -0.06000
C869        C  0.12901904  0.55187501  0.75049554    -0.17200
C870        C  0.13180522  0.58527548  0.75000631     0.11200
S871        S  0.11777629  0.52841386  0.86361524    -0.32200
S872        S  0.14164798  0.60817712  0.70544256    -0.32200
H873        H  0.16294964  0.64239875  0.72101738     0.29200
H874        H  0.13852128  0.51352568  0.85381238     0.29200
H875        H  0.12032835  0.59225467  0.84384051     0.19800
H876        H  0.13093324  0.54045263  0.72422941     0.19800
C877        C  0.17908922  0.42010050  0.84749883    -0.06000
C878        C  0.17826896  0.38785743  0.85314086    -0.17200
C879        C  0.20102540  0.38520952  0.87916958     0.11200
C880        C  0.22483493  0.41526492  0.90110167    -0.06000
C881        C  0.22516798  0.44726225  0.89568605    -0.17200
C882        C  0.20321351  0.45017646  0.86911340     0.11200
S883        S  0.19948572  0.34328135  0.88148207    -0.32200
S884        S  0.20872453  0.49373840  0.86318367    -0.32200
H885        H  0.20558887  0.49144660  0.82375853     0.29200
H886        H  0.23636886  0.35887579  0.87576112     0.29200
H887        H  0.15975249  0.36448377  0.83714135     0.19800
H888        H  0.24361964  0.47078890  0.91153722     0.19800
loop_ 
_geom_bond_atom_site_label_1 
_geom_bond_atom_site_label_2 
_geom_bond_distance 
_geom_bond_site_symmetry_2 
_ccdc_geom_bond_type 
O1            C4   1.266       .  A
O1           Cd6   2.398       .  S
C2           O11   1.270       .  A
C2            O7   1.264       .  A
C2          C424   1.483       .  S
O3            C9   1.271       .  A
O3           Cd6   2.547       .  S
C4           O12   1.266       .  A
C4          C409   1.462       .  S
C5           O10   1.260       .  A
C5            O8   1.271       .  A
C5          C397   1.497       .  S
Cd6          O13   2.425       .  S
Cd6          O12   2.425       .  S
Cd6          O11   2.494       .  S
Cd6           O7   2.437       .  S
Cd6          O10   2.455       .  S
Cd6           O8   2.539       .  S
C9           O13   1.258       .  A
C9          C433   1.490       .  S
O14          C17   1.264       .  A
O14         Cd19   2.393       .  S
C15          O24   1.270       .  A
C15          O20   1.263       .  A
C15         C385   1.475       .  S
O16          C22   1.266       .  A
O16         Cd19   2.506       .  S
C17          O25   1.265       .  A
C17         C373   1.465       .  S
C18          O23   1.272       .  A
C18         O465   1.261   1_554  A
C18         C364   1.494       .  S
Cd19         O26   2.446       .  S
Cd19         O25   2.438       .  S
Cd19         O24   2.484       .  S
Cd19         O20   2.408       .  S
Cd19         O21   2.439       .  S
Cd19        O467   2.512       .  S
O21         C462   1.261       .  A
C22          O26   1.263       .  A
C22         C436   1.491       .  S
O23        Cd463   2.512   1_554  S
O27          C30   1.266   1_556  A
O27        Cd476   2.398       .  S
C28          O37   1.268       .  A
C28          O33   1.263       .  A
C28         C388   1.487       .  S
O29          C35   1.263       .  A
O29         Cd32   2.461       .  S
C30         O482   1.268   1_554  A
C30         C337   1.467       .  S
C31          O36   1.258       .  A
C31          O34   1.271       .  A
C31         C325   1.483       .  S
Cd32         O38   2.429       .  S
Cd32         O37   2.490       .  S
Cd32         O33   2.420       .  S
Cd32         O36   2.421       .  S
Cd32         O34   2.524       .  S
Cd32        O471   2.398       .  S
Cd32        O483   2.498       .  S
C35         O483   1.267       .  A
C35         C793   1.496       .  S
O38         C474   1.267       .  A
O39         C479   1.267       .  A
O39        Cd476   2.499       .  S
O40          C43   1.264       .  A
O40         Cd45   2.386       .  S
C41          O50   1.271       .  A
C41          O46   1.263       .  A
C41         C316   1.482       .  S
O42          C48   1.268       .  A
O42         Cd45   2.527       .  S
C43          O51   1.266       .  A
C43         C301   1.462       .  S
C44          O49   1.274       .  A
C44          O47   1.261       .  A
C44         C292   1.499       .  S
Cd45         O52   2.460       .  S
Cd45         O51   2.450       .  S
Cd45         O50   2.496       .  S
Cd45         O46   2.425       .  S
Cd45         O49   2.548       .  S
Cd45         O47   2.445       .  S
C48          O52   1.262       .  A
C48         C352   1.494       .  S
O53          C56   1.264       .  A
O53         Cd58   2.436       .  S
C54          O63   1.265       .  A
C54          O59   1.265       .  A
C54         C265   1.459       .  S
O55          C61   1.272       .  A
O55         Cd58   2.525       .  S
C56          O64   1.269       .  A
C56         C313   1.481       .  S
C57          O62   1.272       .  A
C57          O60   1.262       .  A
C57         C256   1.479       .  S
Cd58         O65   2.417       .  S
Cd58         O64   2.491       .  S
Cd58         O63   2.456       .  S
Cd58         O59   2.400       .  S
Cd58         O62   2.504       .  S
Cd58         O60   2.414       .  S
C61          O65   1.262       .  A
C61         C277   1.490       .  S
O66          C69   1.263       .  A
O66         Cd71   2.442       .  S
C67          O76   1.266       .  A
C67          O72   1.265       .  A
C67         C241   1.461       .  S
O68          C74   1.271       .  A
O68         Cd71   2.532       .  S
C69          O77   1.270       .  A
C69         C421   1.486       .  S
C70          O75   1.267       .  A
C70          O73   1.261       .  A
C70         C253   1.490       .  S
Cd71         O78   2.436       .  S
Cd71         O77   2.488       .  S
Cd71         O76   2.437       .  S
Cd71         O72   2.388       .  S
Cd71         O75   2.485       .  S
Cd71         O73   2.467       .  S
C74          O78   1.259       .  A
C74         C229   1.489       .  S
O79          C82   1.262       .  A
O79         Cd84   2.404       .  S
C80          O89   1.265       .  A
C80          O85   1.264       .  A
C80         C244   1.466       .  S
O81          C87   1.272       .  A
O81        Cd528   2.530       .  S
C82          O90   1.270       .  A
C82         C205   1.474       .  S
C83          O88   1.268       .  A
C83          O86   1.263       .  A
C83         C217   1.496       .  S
Cd84         O91   2.426       .  S
Cd84         O90   2.495       .  S
Cd84         O89   2.440       .  S
Cd84         O85   2.396       .  S
Cd84         O88   2.502       .  S
Cd84         O86   2.449       .  S
Cd84        O525   2.530   1_554  S
C87         O535   1.261       .  A
C87         C232   1.489       .  S
O91         C531   1.261   1_554  A
O92          C95   1.265       .  A
O92         Cd97   2.394       .  S
C93         O102   1.270       .  A
C93          O98   1.262       .  A
C93         C193   1.483       .  S
O94         C100   1.264       .  A
O94         Cd97   2.477       .  S
C95         O103   1.267       .  A
C95         C340   1.472       .  S
C96         O101   1.270       .  A
C96          O99   1.259       .  A
C96         C328   1.489       .  S
Cd97        O104   2.474       .  S
Cd97        O103   2.442       .  S
Cd97        O102   2.503       .  S
Cd97         O98   2.420       .  S
Cd97        O101   2.498       .  S
Cd97         O99   2.434       .  S
C100        O104   1.265       .  A
C100        C220   1.489       .  S
O105        C108   1.263       .  A
O105       Cd110   2.427       .  S
C106        O115   1.266       .  A
C106        O111   1.265       .  A
C106        C304   1.464       .  S
O107        C113   1.260       .  A
O107       Cd110   2.468       .  S
C108        O116   1.270       .  A
C108        C172   1.491       .  S
C109        O114   1.261       .  A
C109        O112   1.271       .  A
C109        C181   1.498       .  S
Cd110       O117   2.535       .  S
Cd110       O116   2.525       .  S
Cd110       O115   2.454       .  S
Cd110       O111   2.390       .  S
Cd110       O114   2.438       .  S
Cd110       O112   2.541       .  S
C113        O117   1.271       .  A
C113        C289   1.502       .  S
O118        C121   1.265   1_556  A
O118       Cd123   2.437   1_556  S
C119        O128   1.266       .  A
C119        O124   1.266       .  A
C119        C412   1.464       .  S
O120        C126   1.272       .  A
O120       Cd123   2.536       .  S
C121        O129   1.269       .  A
C121        C208   1.490       .  S
C122        O125   1.266       .  A
C122        O571   1.263       .  A
C122        C184   1.493       .  S
Cd123       O130   2.442       .  S
Cd123       O129   2.472       .  S
Cd123       O127   2.473       .  S
Cd123       O572   2.430   1_554  S
Cd123       O568   2.390   1_554  S
Cd123       O569   2.498       .  S
O124       Cd567   2.390       .  S
O125       Cd567   2.498       .  S
C126        O130   1.259       .  A
C126        C400   1.498       .  S
O127        C566   1.263       .  A
O128       Cd567   2.430       .  S
O131        C134   1.263       .  A
O131       Cd136   2.411       .  S
C132        O141   1.271       .  A
C132        O137   1.265       .  A
C132        C196   1.480       .  S
O133        C139   1.265       .  A
O133       Cd136   2.488       .  S
C134        O142   1.264       .  A
C134        C376   1.463       .  S
C135        O140   1.272       .  A
C135        O138   1.259       .  A
C135        C361   1.489       .  S
Cd136       O143   2.495       .  S
Cd136       O142   2.439       .  S
Cd136       O141   2.473       .  S
Cd136       O137   2.434       .  S
Cd136       O140   2.543       .  S
Cd136       O138   2.425       .  S
C139        O143   1.265       .  A
C139        C157   1.491       .  S
O144        C147   1.265       .  A
O144       Cd149   2.404       .  S
C145        O154   1.269       .  A
C145        O150   1.265       .  A
C145        C169   1.480       .  S
O146        C152   1.266       .  A
O146       Cd149   2.488       .  S
C147        O155   1.265       .  A
C147        C268   1.466       .  S
C148        O153   1.271       .  A
C148        O151   1.261       .  A
C148        C280   1.497       .  S
Cd149       O156   2.472       .  S
Cd149       O155   2.450       .  S
Cd149       O154   2.503       .  S
Cd149       O150   2.442       .  S
Cd149       O153   2.523       .  S
Cd149       O151   2.431       .  S
C152        O156   1.265       .  A
C152        C160   1.492       .  S
C157        C158   1.407       .  A
C157        C162   1.415       .  A
C158        C159   1.403       .  A
C158        H167   1.084       .  S
C159        C160   1.415       .  A
C159        S163   1.802       .  S
C160        C161   1.408       .  A
C161        C162   1.404       .  A
C161        H168   1.084       .  S
C162        S164   1.802       .  S
S163        H166   1.407       .  S
S164        H165   1.407       .  S
C169        C170   1.405       .  A
C169        C174   1.411       .  A
C170        C171   1.407       .  A
C170        H179   1.084       .  S
C171        C172   1.418       .  A
C171        S175   1.800       .  S
C172        C173   1.407       .  A
C173        C174   1.397       .  A
C173        H180   1.084       .  S
C174        S176   1.804       .  S
S175        H178   1.407       .  S
S176        H177   1.408       .  S
C181        C182   1.410       .  A
C181        C186   1.416       .  A
C182        C183   1.403       .  A
C182        H191   1.084       .  S
C183        C184   1.414       .  A
C183        S187   1.802       .  S
C184        C185   1.409       .  A
C185        C186   1.405       .  A
C185        H192   1.084       .  S
C186        S188   1.799       .  S
S187        H190   1.407       .  S
S188        H189   1.407       .  S
C193        C194   1.404       .  A
C193        C198   1.418       .  A
C194        C195   1.402       .  A
C194        H203   1.084       .  S
C195        C196   1.415       .  A
C195        S199   1.803       .  S
C196        C197   1.400       .  A
C197        C198   1.397       .  A
C197        H204   1.084       .  S
C198        S200   1.804       .  S
S199        H202   1.408       .  S
S200        H201   1.407       .  S
C205        C206   1.403       .  A
C205        C210   1.409   1_554  A
C206        C207   1.398       .  A
C206        H215   1.084       .  S
C207        C208   1.417       .  A
C207        S211   1.800       .  S
C208        C209   1.411   1_554  A
C209        C210   1.400       .  A
C209        H216   1.083       .  S
C210        S212   1.800       .  S
S211        H214   1.408       .  S
S212        H213   1.406       .  S
C217        C218   1.410       .  A
C217        C222   1.417       .  A
C218        C219   1.401       .  A
C218        H227   1.083       .  S
C219        C220   1.413       .  A
C219        S223   1.803       .  S
C220        C221   1.407       .  A
C221        C222   1.403       .  A
C221        H228   1.084       .  S
C222        S224   1.799       .  S
S223        H226   1.408       .  S
S224        H225   1.408       .  S
C229        C230   1.401       .  A
C229        C234   1.421   1_455  A
C230        C231   1.402       .  A
C230        H239   1.084       .  S
C231        C232   1.419   1_455  A
C231        S235   1.802       .  S
C232        C233   1.402       .  A
C233        C234   1.404       .  A
C233        H240   1.084       .  S
C234        S236   1.804       .  S
S235        H682   1.407       .  S
S236        H237   1.407       .  S
H238        S679   1.407   1_554  S
C241        C242   1.402       .  A
C241        C246   1.409   1_455  A
C242        C243   1.396       .  A
C242        H251   1.084       .  S
C243        C244   1.413   1_455  A
C243        S247   1.801       .  S
C244        C245   1.402       .  A
C245        C246   1.389       .  A
C245        H252   1.084       .  S
C246        S248   1.805       .  S
S247        H250   1.405       .  S
S248        H249   1.408       .  S
C253        C254   1.406       .  A
C253        C258   1.420       .  A
C254        C255   1.402       .  A
C254        H263   1.082       .  S
C255        C256   1.411       .  A
C255        S259   1.809       .  S
C256        C257   1.402       .  A
C257        C258   1.403       .  A
C257        H264   1.084       .  S
C258        S260   1.802       .  S
S259        H262   1.406       .  S
S260        H261   1.407       .  S
C265        C266   1.399   1_565  A
C265        C270   1.412       .  A
C266        C267   1.390       .  A
C266        H275   1.084       .  S
C267        C268   1.411       .  A
C267        S271   1.804       .  S
C268        C269   1.404       .  A
C269        C270   1.398   1_545  A
C269        H276   1.084       .  S
C270        S272   1.804       .  S
S271        H274   1.408       .  S
S272        H273   1.406       .  S
C277        C278   1.408   1_565  A
C277        C726   1.411   1_554  A
C278        C723   1.406       .  A
C278        H287   1.082       .  S
C279        C280   1.415       .  A
C279        C722   1.406       .  A
C279        S727   1.808       .  S
C280        C281   1.412   1_545  A
C281        C282   1.402       .  A
C281        H288   1.083       .  S
C282        C721   1.411       .  A
C282        S284   1.802       .  S
S283        C723   1.808       .  S
S283        H730   1.407       .  S
S284        H285   1.407       .  S
H286        S727   1.407       .  S
C289        C290   1.404       .  A
C289        C294   1.422   1_545  A
C290        C291   1.404       .  A
C290        H299   1.084       .  S
C291        C292   1.421   1_545  A
C291        S295   1.803       .  S
C292        C293   1.404       .  A
C293        C294   1.412       .  A
C293        H300   1.082       .  S
C294        S296   1.808       .  S
S295        H298   1.408   1_545  S
S296        H297   1.407       .  S
C301        C306   1.411   1_565  A
C301        C746   1.400   1_554  A
C302        C303   1.389       .  A
C302        C745   1.400       .  A
C302        H311   1.084       .  S
C303        C304   1.411   1_565  A
C303        S307   1.804       .  S
C304        C305   1.404       .  A
C305        C750   1.398       .  A
C305        H312   1.084       .  S
C306        C749   1.398   1_554  A
C306        S308   1.803       .  S
S307        H310   1.408       .  S
S308        H309   1.407       .  S
C313        C314   1.403       .  A
C313        C318   1.415       .  A
C314        C315   1.405       .  A
C314        H323   1.083       .  S
C315        C316   1.416       .  A
C315        S319   1.809       .  S
C316        C317   1.402       .  A
C317        C318   1.399       .  A
C317        H324   1.084       .  S
C318        S320   1.803       .  S
S319        H322   1.407       .  S
S320        H321   1.407       .  S
C325        C326   1.400       .  A
C325        C330   1.417       .  A
C326        C327   1.405       .  A
C326        H335   1.082       .  S
C327        C328   1.422       .  A
C327        S331   1.810       .  S
C328        C329   1.403       .  A
C329        C330   1.401       .  A
C329        H336   1.082       .  S
C330        S332   1.811       .  S
S331        H334   1.407       .  S
S332        H333   1.407       .  S
C337        C338   1.403       .  A
C337        C342   1.411       .  A
C338        C339   1.396       .  A
C338        H347   1.084       .  S
C339        C340   1.414       .  A
C339        S343   1.802       .  S
C340        C341   1.404       .  A
C341        C342   1.390       .  A
C341        H348   1.084       .  S
C342        S344   1.804       .  S
S343        H346   1.408       .  S
S344        H345   1.408   1_554  S
C349        C479   1.497   1_554  S
C349        C350   1.411       .  A
C349        C354   1.415   1_554  A
C350        C351   1.405       .  A
C350        H803   1.083       .  S
C351        C352   1.413       .  A
C351        S355   1.801       .  S
C352        C353   1.409       .  A
C353        C354   1.403   1_554  A
C353        H360   1.084       .  S
C354        S356   1.802       .  S
S355        H358   1.407       .  S
S356        H357   1.408       .  S
H359        C794   1.083       .  S
C361        C362   1.402       .  A
C361        C366   1.418       .  A
C362        C363   1.409       .  A
C362        H371   1.083       .  S
C363        C364   1.422       .  A
C363        S367   1.809       .  S
C364        C365   1.403       .  A
C365        C366   1.400       .  A
C365        H372   1.084       .  S
C366        S368   1.805       .  S
S367        H814   1.407       .  S
S368        H369   1.407       .  S
H370        S811   1.407       .  S
C373        C374   1.402       .  A
C373        C378   1.412       .  A
C374        C375   1.390       .  A
C374        H383   1.084       .  S
C375        C376   1.411       .  A
C375        S379   1.805       .  S
C376        C377   1.402       .  A
C377        C378   1.395       .  A
C377        H384   1.084       .  S
C378        S380   1.802       .  S
S379        H382   1.407       .  S
S380        H381   1.407       .  S
C385        C386   1.405       .  A
C385        C390   1.410       .  A
C386        C387   1.399       .  A
C386        H395   1.084       .  S
C387        C388   1.415       .  A
C387        S391   1.801       .  S
C388        C389   1.409       .  A
C389        C390   1.397       .  A
C389        H840   1.083       .  S
C390        S836   1.803       .  S
S391        H394   1.408       .  S
S392        C834   1.803   1_554  S
S392        H393   1.407       .  S
H396        C833   1.083   1_554  S
C397        C398   1.403       .  A
C397        C402   1.420       .  A
C398        C399   1.404       .  A
C398        H407   1.084       .  S
C399        C400   1.423   1_455  A
C399        S403   1.803       .  S
C400        C401   1.404       .  A
C401        C402   1.409   1_655  A
C401        H408   1.082       .  S
C402        S404   1.808   1_455  S
S403        H406   1.408   1_455  S
S404        H405   1.407       .  S
C409        C410   1.403       .  A
C409        C414   1.410   1_455  A
C410        C411   1.395   1_455  A
C410        H419   1.084       .  S
C411        C412   1.413       .  A
C411        S415   1.803   1_655  S
C412        C413   1.402       .  A
C413        C414   1.390       .  A
C413        H420   1.084       .  S
C414        S416   1.804       .  S
S415        H862   1.408       .  S
S416        H417   1.408       .  S
H418        S859   1.408       .  S
C421        C422   1.404       .  A
C421        C426   1.418       .  A
C422        C423   1.400       .  A
C422        H431   1.084       .  S
C423        C424   1.416       .  A
C423        S427   1.803       .  S
C424        C425   1.402       .  A
C425        C426   1.401       .  A
C425        H432   1.084       .  S
C426        S428   1.802       .  S
S427        H430   1.408       .  S
S428        H429   1.408       .  S
C433        C434   1.405       .  A
C433        C438   1.417       .  A
C434        C435   1.407       .  A
C434        H443   1.084       .  S
C435        C436   1.419       .  A
C435        S439   1.801       .  S
C436        C437   1.404       .  A
C437        C438   1.399       .  A
C437        H444   1.084       .  S
C438        S440   1.804       .  S
S439        H442   1.407       .  S
S440        H441   1.407       .  S
O445        C448   1.266       .  A
O445       Cd450   2.398       .  S
C446        O455   1.270       .  A
C446        O451   1.264       .  A
C446        C868   1.482       .  S
O447        C453   1.271       .  A
O447       Cd450   2.547       .  S
C448        O456   1.266       .  A
C448        C853   1.462       .  S
C449        O454   1.260       .  A
C449        O452   1.271       .  A
C449        C841   1.497       .  S
Cd450       O457   2.425       .  S
Cd450       O456   2.425       .  S
Cd450       O455   2.494       .  S
Cd450       O451   2.436       .  S
Cd450       O454   2.454       .  S
Cd450       O452   2.539       .  S
C453        O457   1.258       .  A
C453        C877   1.490       .  S
O458        C461   1.264       .  A
O458       Cd463   2.393       .  S
C459        O468   1.270       .  A
C459        O464   1.263       .  A
C459        C829   1.475       .  S
O460        C466   1.266       .  A
O460       Cd463   2.506       .  S
C461        O469   1.265       .  A
C461        C817   1.465       .  S
C462        O467   1.272       .  A
C462        C808   1.494       .  S
Cd463       O470   2.446       .  S
Cd463       O469   2.439       .  S
Cd463       O468   2.484       .  S
Cd463       O464   2.409       .  S
Cd463       O465   2.439       .  S
C466        O470   1.263       .  A
C466        C880   1.491       .  S
O471        C474   1.266       .  A
C472        O481   1.268       .  A
C472        O477   1.263       .  A
C472        C832   1.487       .  S
O473        C479   1.263       .  A
O473       Cd476   2.461       .  S
C474        C781   1.467       .  S
C475        O480   1.258       .  A
C475        O478   1.271       .  A
C475        C769   1.483       .  S
Cd476       O482   2.429       .  S
Cd476       O481   2.490       .  S
Cd476       O477   2.420       .  S
Cd476       O480   2.422       .  S
Cd476       O478   2.524       .  S
O484        C487   1.264       .  A
O484       Cd489   2.386       .  S
C485        O494   1.271       .  A
C485        O490   1.263       .  A
C485        C760   1.482       .  S
O486        C492   1.268       .  A
O486       Cd489   2.527       .  S
C487        O495   1.266       .  A
C487        C745   1.462       .  S
C488        O493   1.274       .  A
C488        O491   1.261       .  A
C488        C736   1.499       .  S
Cd489       O496   2.460       .  S
Cd489       O495   2.450       .  S
Cd489       O494   2.496       .  S
Cd489       O490   2.425       .  S
Cd489       O493   2.548       .  S
Cd489       O491   2.446       .  S
C492        O496   1.262       .  A
C492        C796   1.494       .  S
O497        C500   1.264       .  A
O497       Cd502   2.437       .  S
C498        O507   1.265       .  A
C498        O503   1.266       .  A
C498        C709   1.459       .  S
O499        C505   1.272       .  A
O499       Cd502   2.525       .  S
C500        O508   1.269       .  A
C500        C757   1.481       .  S
C501        O506   1.272       .  A
C501        O504   1.262       .  A
C501        C700   1.479       .  S
Cd502       O509   2.418       .  S
Cd502       O508   2.492       .  S
Cd502       O507   2.456       .  S
Cd502       O503   2.400       .  S
Cd502       O506   2.504       .  S
Cd502       O504   2.414       .  S
C505        O509   1.262       .  A
C505        C721   1.490       .  S
O510        C513   1.263       .  A
O510       Cd515   2.442       .  S
C511        O520   1.266       .  A
C511        O516   1.265       .  A
C511        C685   1.461       .  S
O512        C518   1.271       .  A
O512       Cd515   2.532       .  S
C513        O521   1.270       .  A
C513        C865   1.486       .  S
C514        O519   1.267       .  A
C514        O517   1.261       .  A
C514        C697   1.490       .  S
Cd515       O522   2.436       .  S
Cd515       O521   2.487       .  S
Cd515       O520   2.437       .  S
Cd515       O516   2.388       .  S
Cd515       O519   2.485       .  S
Cd515       O517   2.466       .  S
C518        O522   1.259       .  A
C518        C673   1.489       .  S
O523        C526   1.262       .  A
O523       Cd528   2.404       .  S
C524        O533   1.265       .  A
C524        O529   1.264       .  A
C524        C688   1.466       .  S
O525        C531   1.272       .  A
C526        O534   1.270       .  A
C526        C649   1.474       .  S
C527        O532   1.267       .  A
C527        O530   1.263       .  A
C527        C661   1.496       .  S
Cd528       O535   2.426       .  S
Cd528       O534   2.495       .  S
Cd528       O533   2.440       .  S
Cd528       O529   2.396       .  S
Cd528       O532   2.502       .  S
Cd528       O530   2.449       .  S
C531        C676   1.489       .  S
O536        C539   1.265       .  A
O536       Cd541   2.394       .  S
C537        O546   1.270       .  A
C537        O542   1.262       .  A
C537        C637   1.483       .  S
O538        C544   1.264       .  A
O538       Cd541   2.477       .  S
C539        O547   1.267       .  A
C539        C784   1.472       .  S
C540        O545   1.270       .  A
C540        O543   1.259       .  A
C540        C772   1.489       .  S
Cd541       O548   2.474       .  S
Cd541       O547   2.442       .  S
Cd541       O546   2.503       .  S
Cd541       O542   2.420       .  S
Cd541       O545   2.498       .  S
Cd541       O543   2.434       .  S
C544        O548   1.265       .  A
C544        C664   1.489       .  S
O549        C552   1.263       .  A
O549       Cd554   2.428       .  S
C550        O559   1.266       .  A
C550        O555   1.265       .  A
C550        C748   1.464       .  S
O551        C557   1.260       .  A
O551       Cd554   2.468       .  S
C552        O560   1.270       .  A
C552        C616   1.491       .  S
C553        O558   1.261       .  A
C553        O556   1.271       .  A
C553        C625   1.498       .  S
Cd554       O561   2.535       .  S
Cd554       O560   2.524       .  S
Cd554       O559   2.454       .  S
Cd554       O555   2.390       .  S
Cd554       O558   2.438       .  S
Cd554       O556   2.541       .  S
C557        O561   1.271       .  A
C557        C733   1.502       .  S
O562        C565   1.265       .  A
O562       Cd567   2.437       .  S
C563        O572   1.266       .  A
C563        O568   1.265       .  A
C563        C856   1.464       .  S
O564        C570   1.272       .  A
O564       Cd567   2.536       .  S
C565        O573   1.269       .  A
C565        C652   1.490       .  S
C566        O569   1.266       .  A
C566        C628   1.493   1_554  S
Cd567       O574   2.442       .  S
Cd567       O573   2.472       .  S
Cd567       O571   2.473       .  S
C570        O574   1.259       .  A
C570        C844   1.498       .  S
O575        C578   1.263       .  A
O575       Cd580   2.410       .  S
C576        O585   1.271       .  A
C576        O581   1.265       .  A
C576        C640   1.480       .  S
O577        C583   1.265       .  A
O577       Cd580   2.487       .  S
C578        O586   1.264       .  A
C578        C820   1.463       .  S
C579        O584   1.272       .  A
C579        O582   1.259       .  A
C579        C805   1.489       .  S
Cd580       O587   2.495       .  S
Cd580       O586   2.439       .  S
Cd580       O585   2.472       .  S
Cd580       O581   2.434       .  S
Cd580       O584   2.543       .  S
Cd580       O582   2.424       .  S
C583        O587   1.265       .  A
C583        C601   1.491       .  S
O588        C591   1.265       .  A
O588       Cd593   2.404       .  S
C589        O598   1.269       .  A
C589        O594   1.265       .  A
C589        C613   1.480       .  S
O590        C596   1.266       .  A
O590       Cd593   2.488       .  S
C591        O599   1.265       .  A
C591        C712   1.467       .  S
C592        O597   1.271       .  A
C592        O595   1.261       .  A
C592        C724   1.497       .  S
Cd593       O600   2.473       .  S
Cd593       O599   2.450       .  S
Cd593       O598   2.503       .  S
Cd593       O594   2.442       .  S
Cd593       O597   2.523       .  S
Cd593       O595   2.431       .  S
C596        O600   1.265       .  A
C596        C604   1.492       .  S
C601        C602   1.407       .  A
C601        C606   1.415       .  A
C602        C603   1.403       .  A
C602        H611   1.084       .  S
C603        C604   1.415       .  A
C603        S607   1.802       .  S
C604        C605   1.408       .  A
C605        C606   1.404       .  A
C605        H612   1.084       .  S
C606        S608   1.802       .  S
S607        H610   1.407       .  S
S608        H609   1.407       .  S
C613        C614   1.405       .  A
C613        C618   1.411       .  A
C614        C615   1.407       .  A
C614        H623   1.084       .  S
C615        C616   1.418       .  A
C615        S619   1.800       .  S
C616        C617   1.407       .  A
C617        C618   1.397       .  A
C617        H624   1.084       .  S
C618        S620   1.804       .  S
S619        H622   1.408       .  S
S620        H621   1.408       .  S
C625        C626   1.410       .  A
C625        C630   1.416       .  A
C626        C627   1.403       .  A
C626        H635   1.084       .  S
C627        C628   1.414       .  A
C627        S631   1.802   1_556  S
C628        C629   1.409       .  A
C629        C630   1.405       .  A
C629        H636   1.084       .  S
C630        S632   1.799       .  S
S631        H634   1.407       .  S
S632        H633   1.407       .  S
C637        C638   1.404       .  A
C637        C642   1.418       .  A
C638        C639   1.402       .  A
C638        H647   1.084       .  S
C639        C640   1.415       .  A
C639        S643   1.803       .  S
C640        C641   1.400       .  A
C641        C642   1.397       .  A
C641        H648   1.084       .  S
C642        S644   1.804       .  S
S643        H646   1.408       .  S
S644        H645   1.408       .  S
C649        C650   1.403       .  A
C649        C654   1.409       .  A
C650        C651   1.398       .  A
C650        H659   1.084       .  S
C651        C652   1.417       .  A
C651        S655   1.800       .  S
C652        C653   1.411       .  A
C653        C654   1.400       .  A
C653        H660   1.083       .  S
C654        S656   1.800       .  S
S655        H658   1.408       .  S
S656        H657   1.406       .  S
C661        C662   1.410       .  A
C661        C666   1.417       .  A
C662        C663   1.401       .  A
C662        H671   1.083       .  S
C663        C664   1.413       .  A
C663        S667   1.803       .  S
C664        C665   1.407       .  A
C665        C666   1.403       .  A
C665        H672   1.084       .  S
C666        S668   1.799       .  S
S667        H670   1.408       .  S
S668        H669   1.408       .  S
C673        C674   1.401       .  A
C673        C678   1.421   1_455  A
C674        C675   1.402       .  A
C674        H683   1.084       .  S
C675        C676   1.419   1_455  A
C675        S679   1.802       .  S
C676        C677   1.402       .  A
C677        C678   1.404       .  A
C677        H684   1.084       .  S
C678        S680   1.804       .  S
S680        H681   1.407       .  S
C685        C686   1.402       .  A
C685        C690   1.409   1_455  A
C686        C687   1.396       .  A
C686        H695   1.084       .  S
C687        C688   1.413   1_455  A
C687        S691   1.801       .  S
C688        C689   1.402       .  A
C689        C690   1.389       .  A
C689        H696   1.084       .  S
C690        S692   1.805       .  S
S691        H694   1.405       .  S
S692        H693   1.408       .  S
C697        C698   1.406       .  A
C697        C702   1.420       .  A
C698        C699   1.402       .  A
C698        H707   1.082       .  S
C699        C700   1.411       .  A
C699        S703   1.809       .  S
C700        C701   1.402       .  A
C701        C702   1.403       .  A
C701        H708   1.084       .  S
C702        S704   1.802       .  S
S703        H706   1.406       .  S
S704        H705   1.407       .  S
C709        C710   1.399   1_565  A
C709        C714   1.412       .  A
C710        C711   1.390       .  A
C710        H719   1.084       .  S
C711        C712   1.411       .  A
C711        S715   1.804       .  S
C712        C713   1.404       .  A
C713        C714   1.398   1_545  A
C713        H720   1.084       .  S
C714        S716   1.804       .  S
S715        H718   1.408       .  S
S716        H717   1.406       .  S
C721        C722   1.409   1_565  A
C722        H731   1.082       .  S
C723        C724   1.415   1_554  A
C724        C725   1.412   1_545  A
C725        C726   1.402       .  A
C725        H732   1.083       .  S
C726        S728   1.802       .  S
S728        H729   1.407       .  S
C733        C734   1.404       .  A
C733        C738   1.422   1_545  A
C734        C735   1.404       .  A
C734        H743   1.084       .  S
C735        C736   1.421   1_545  A
C735        S739   1.803       .  S
C736        C737   1.404       .  A
C737        C738   1.412       .  A
C737        H744   1.082       .  S
C738        S740   1.808       .  S
S739        H742   1.408   1_545  S
S740        H741   1.407       .  S
C745        C750   1.411   1_565  A
C746        C747   1.389       .  A
C746        H755   1.084       .  S
C747        C748   1.410   1_565  A
C747        S751   1.805       .  S
C748        C749   1.404       .  A
C749        H756   1.084       .  S
C750        S752   1.803       .  S
S751        H754   1.408       .  S
S752        H753   1.407       .  S
C757        C758   1.403       .  A
C757        C762   1.415       .  A
C758        C759   1.405       .  A
C758        H767   1.083       .  S
C759        C760   1.416       .  A
C759        S763   1.809       .  S
C760        C761   1.402       .  A
C761        C762   1.399       .  A
C761        H768   1.084       .  S
C762        S764   1.803       .  S
S763        H766   1.407       .  S
S764        H765   1.407       .  S
C769        C770   1.400       .  A
C769        C774   1.417       .  A
C770        C771   1.405       .  A
C770        H779   1.082       .  S
C771        C772   1.422       .  A
C771        S775   1.810       .  S
C772        C773   1.403       .  A
C773        C774   1.401       .  A
C773        H780   1.082       .  S
C774        S776   1.811       .  S
S775        H778   1.407       .  S
S776        H777   1.407       .  S
C781        C782   1.403       .  A
C781        C786   1.411       .  A
C782        C783   1.396       .  A
C782        H791   1.084       .  S
C783        C784   1.414       .  A
C783        S787   1.802       .  S
C784        C785   1.404       .  A
C785        C786   1.390       .  A
C785        H792   1.084       .  S
C786        S788   1.804       .  S
S787        H790   1.408       .  S
S788        H789   1.408       .  S
C793        C794   1.411       .  A
C793        C798   1.415       .  A
C794        C795   1.405       .  A
C795        C796   1.413       .  A
C795        S799   1.801       .  S
C796        C797   1.409       .  A
C797        C798   1.403       .  A
C797        H804   1.084       .  S
C798        S800   1.802       .  S
S799        H802   1.407       .  S
S800        H801   1.408       .  S
C805        C806   1.402       .  A
C805        C810   1.418       .  A
C806        C807   1.409       .  A
C806        H815   1.083       .  S
C807        C808   1.422       .  A
C807        S811   1.809       .  S
C808        C809   1.403       .  A
C809        C810   1.400       .  A
C809        H816   1.084       .  S
C810        S812   1.805       .  S
S812        H813   1.407       .  S
C817        C818   1.402       .  A
C817        C822   1.412       .  A
C818        C819   1.390       .  A
C818        H827   1.084       .  S
C819        C820   1.411       .  A
C819        S823   1.805       .  S
C820        C821   1.402       .  A
C821        C822   1.395       .  A
C821        H828   1.084       .  S
C822        S824   1.802       .  S
S823        H826   1.407       .  S
S824        H825   1.407       .  S
C829        C830   1.405       .  A
C829        C834   1.410       .  A
C830        C831   1.399       .  A
C830        H839   1.084       .  S
C831        C832   1.415       .  A
C831        S835   1.801       .  S
C832        C833   1.409       .  A
C833        C834   1.397       .  A
S835        H838   1.408       .  S
S836        H837   1.407       .  S
C841        C842   1.403       .  A
C841        C846   1.420       .  A
C842        C843   1.404       .  A
C842        H851   1.084       .  S
C843        C844   1.423   1_455  A
C843        S847   1.803       .  S
C844        C845   1.404       .  A
C845        C846   1.409   1_655  A
C845        H852   1.082       .  S
C846        S848   1.808   1_455  S
S847        H850   1.408   1_455  S
S848        H849   1.407       .  S
C853        C854   1.403       .  A
C853        C858   1.410   1_455  A
C854        C855   1.395   1_455  A
C854        H863   1.084       .  S
C855        C856   1.413       .  A
C855        S859   1.803   1_655  S
C856        C857   1.402       .  A
C857        C858   1.390       .  A
C857        H864   1.084       .  S
C858        S860   1.804       .  S
S860        H861   1.408       .  S
C865        C866   1.404       .  A
C865        C870   1.418       .  A
C866        C867   1.399       .  A
C866        H875   1.084       .  S
C867        C868   1.416       .  A
C867        S871   1.803       .  S
C868        C869   1.402       .  A
C869        C870   1.401       .  A
C869        H876   1.084       .  S
C870        S872   1.802       .  S
S871        H874   1.408       .  S
S872        H873   1.408       .  S
C877        C878   1.405       .  A
C877        C882   1.417       .  A
C878        C879   1.407       .  A
C878        H887   1.084       .  S
C879        C880   1.419       .  A
C879        S883   1.801       .  S
C880        C881   1.404       .  A
C881        C882   1.399       .  A
C881        H888   1.084       .  S
C882        S884   1.804       .  S
S883        H886   1.407       .  S
S884        H885   1.407       .  S
