geometry optimzed in LAMMPS
_audit_creation_date              2020-11-30 
_audit_creation_method            'lammps2cif' 
_symmetry_space_group_name_H-M    'P1' 
_symmetry_Int_Tables_number       1 
_symmetry_cell_setting            triclinic 
loop_ 
_symmetry_equiv_pos_as_xyz 
  x,y,z 
_cell_length_a                    39.27854067 
_cell_length_b                    39.455036863899345 
_cell_length_c                    41.87220374058269 
_cell_angle_alpha                 90.57545403778614 
_cell_angle_beta                  89.8455170105654 
_cell_angle_gamma                 120.964036425652 
loop_ 
_atom_site_label 
_atom_site_type_symbol 
_atom_site_fract_x 
_atom_site_fract_y 
_atom_site_fract_z 
_atom_site_charge 
O1          O  0.37216214  0.51398468  0.54605211    -0.86300
O2          O  0.29560527  0.49775447  0.55434569    -0.83400
C3          C  0.27374050  0.46063321  0.55365703     0.97100
O4          O  0.27585511  0.44003716  0.57550402    -0.83400
O5          O  0.31170738  0.42201419  0.62468361    -0.86000
C6          C  0.34157539  0.42145033  0.61336206     1.01700
O7          O  0.37170107  0.45258483  0.60363314    -0.78800
O8          O  0.41935342  0.52740812  0.58044191    -0.79000
C9          C  0.40755901  0.52403382  0.55183201     1.01600
O10         O  0.39964435  0.57887844  0.59119281    -0.86300
O11         O  0.32353201  0.55437410  0.60485176    -0.83400
C12         C  0.28802434  0.53510774  0.61346973     0.97200
O13         O  0.27067742  0.49763793  0.61589760    -0.83400
O14         O  0.30906852  0.48191054  0.66369219    -0.86000
C15         C  0.33688022  0.48203718  0.67871511     1.01600
O16         O  0.36501178  0.48278000  0.66349013    -0.78800
O17         O  0.40531901  0.55863557  0.63823630    -0.79000
C18         C  0.41294686  0.58650477  0.61944758     1.01600
Cr19       Cr  0.34726810  0.53354504  0.57604616     1.93700
Cr20       Cr  0.29541804  0.46304537  0.61897594     1.93200
Cr21       Cr  0.38705473  0.50485403  0.62045053     1.39100
O22         O  0.34293121  0.50006698  0.60515602    -1.24100
O23         O  0.16877448  0.62319632  0.56166880    -0.86300
O24         O  0.18552932  0.69851838  0.54926548    -0.83400
C25         C  0.18983913  0.73224318  0.55295090     0.97100
O26         O  0.19129790  0.74595034  0.58090380    -0.83400
O27         O  0.11560862  0.69904075  0.60567594    -0.86000
C28         C  0.08545992  0.66801048  0.61560345     1.01700
O29         O  0.08824896  0.64005302  0.62747708    -0.78800
O30         O  0.10911105  0.60484548  0.57892707    -0.79000
C31         C  0.13149520  0.60112019  0.55933721     1.01600
O32         O  0.22221729  0.65444258  0.61480135    -0.86300
O33         O  0.24649114  0.72948406  0.59699331    -0.83400
C34         C  0.25180958  0.74236971  0.62531666     0.97200
O35         O  0.22253378  0.73656701  0.64174959    -0.83400
O36         O  0.14794005  0.69618686  0.66643209    -0.86000
C37         C  0.14804470  0.66877868  0.68185125     1.01600
O38         O  0.14754769  0.64037662  0.66741500    -0.78800
O39         O  0.16477531  0.60086713  0.62169474    -0.79000
C40         C  0.20241642  0.61851895  0.62202697     1.01600
Cr41       Cr  0.20300525  0.67607862  0.58248952     1.93700
Cr42       Cr  0.16917276  0.71638346  0.62254612     1.93200
Cr43       Cr  0.12994381  0.62519107  0.62288322     1.39100
O44         O  0.16666634  0.67242923  0.60896108    -1.24100
O45         O  0.47070607  0.83806395  0.55528878    -0.86300
O46         O  0.50546711  0.79339793  0.56054441    -0.83400
C47         C  0.54149574  0.81737569  0.55406617     0.97100
O48         O  0.56355039  0.84416549  0.57395996    -0.83400
O49         O  0.58205902  0.90053532  0.62295990    -0.86000
C50         C  0.57526488  0.92600418  0.61104776     1.01700
O51         O  0.54024513  0.91718391  0.60516955    -0.78800
O52         O  0.46148575  0.87467711  0.58989041    -0.79000
C53         C  0.46071409  0.86300327  0.56156419     1.01600
O54         O  0.42011920  0.79770381  0.60818890    -0.86300
O55         O  0.46096143  0.75988449  0.61790447    -0.83400
C56         C  0.48860941  0.75331341  0.62293622     0.97200
O57         O  0.52448712  0.78089126  0.61963948    -0.83400
O58         O  0.53599390  0.83542413  0.66662843    -0.86000
C59         C  0.52889128  0.85864866  0.68222101     1.01600
O60         O  0.52357823  0.88357607  0.66784774    -0.78800
O61         O  0.44483330  0.83622759  0.65032886    -0.79000
C62         C  0.41547145  0.80939185  0.63515727     1.01600
Cr63       Cr  0.46715046  0.80022925  0.58738913     1.93700
Cr64       Cr  0.54833372  0.84042048  0.62025803     1.93200
Cr65       Cr  0.49358828  0.87510853  0.62716407     1.39100
O66         O  0.50309505  0.83865519  0.61160375    -1.24100
O67         O  0.16289764  0.54367687  0.44268706    -0.86300
O68         O  0.18691439  0.49045706  0.45177452    -0.83400
C69         C  0.19065911  0.46094108  0.44687513     0.97100
O70         O  0.18859244  0.44778972  0.41878031    -0.83400
O71         O  0.11101533  0.41787025  0.39717809    -0.86000
C72         C  0.08073802  0.41827350  0.38768686     1.01700
O73         O  0.08436159  0.44759816  0.37300213    -0.78800
O74         O  0.10359043  0.49921713  0.42507813    -0.79000
C75         C  0.12568101  0.52320297  0.44657957     1.01600
O76         O  0.21517059  0.57541734  0.38881542    -0.86300
O77         O  0.24405067  0.52633038  0.40157057    -0.83400
C78         C  0.24799903  0.51357142  0.37488171     0.97200
O79         O  0.21804635  0.48833696  0.35918778    -0.83400
O80         O  0.14219234  0.45445739  0.33560196    -0.86000
C81         C  0.14251396  0.48248366  0.32070825     1.01600
O82         O  0.14214800  0.51020070  0.33574126    -0.78800
O83         O  0.15441330  0.56308204  0.38434081    -0.79000
C84         C  0.19129249  0.58683550  0.38248377     1.01600
Cr85       Cr  0.19951399  0.53132372  0.41914738     1.93700
Cr86       Cr  0.16458033  0.45507517  0.37881897     1.93200
Cr87       Cr  0.12404467  0.50431108  0.38047998     1.39100
O88         O  0.16285182  0.49681535  0.39287002    -1.24100
O89         O  0.35103478  0.83920091  0.44926524    -0.86300
O90         O  0.27464661  0.78617535  0.43307119    -0.83400
C91         C  0.26046134  0.80781912  0.43923919     0.97100
O92         O  0.26839799  0.83648016  0.42127122    -0.83400
O93         O  0.30891845  0.89542863  0.37563230    -0.86000
C94         C  0.33963900  0.92307073  0.38929343     1.01700
O95         O  0.36738781  0.91803929  0.39777281    -0.78800
O96         O  0.40351407  0.88056062  0.42184394    -0.79000
C97         C  0.38657673  0.86716169  0.44855463     1.01600
O98         O  0.37932173  0.80742716  0.40180258    -0.86300
O99         O  0.30319133  0.76340102  0.37894713    -0.83400
C100        C  0.26818772  0.75254597  0.37092753     0.97200
O101        O  0.25526653  0.77616610  0.37368305    -0.83400
O102        O  0.30042943  0.83519584  0.33147464    -0.86000
C103        C  0.33211268  0.86068654  0.31817484     1.01600
O104        O  0.36213504  0.88483702  0.33471568    -0.78800
O105        O  0.39459238  0.84345107  0.35906197    -0.79000
C106        C  0.39745377  0.81863366  0.37560926     1.01600
Cr107      Cr  0.32737065  0.80181553  0.41391444     1.93700
Cr108      Cr  0.28648872  0.83628360  0.37645752     1.93200
Cr109      Cr  0.37835893  0.87890272  0.37904364     1.39100
O110        O  0.33082519  0.83932511  0.38955762    -1.24100
O111        O  0.47892336  0.64619055  0.44692798    -0.86300
O112        O  0.50172126  0.72358819  0.43435404    -0.83400
C113        C  0.53871002  0.74196635  0.43938717     0.97100
O114        O  0.56077986  0.73587486  0.42127254    -0.83400
O115        O  0.58253233  0.69849924  0.37546259    -0.86000
C116        C  0.57935055  0.66755421  0.38736689     1.01700
O117        O  0.54587552  0.63828321  0.39382237    -0.78800
O118        O  0.47079701  0.59777863  0.41545957    -0.79000
C119        C  0.47422754  0.61225178  0.44325206     1.01600
O120        O  0.41975760  0.61940998  0.39808093    -0.86300
O121        O  0.45122222  0.69727406  0.37996671    -0.83400
C122        C  0.47553570  0.73217672  0.37134289     0.97200
O123        O  0.51275979  0.74614231  0.37376181    -0.83400
O124        O  0.53068006  0.70527604  0.33040552    -0.86000
C125        C  0.52584204  0.67489973  0.31599415     1.01600
O126        O  0.51973918  0.64492323  0.33144643    -0.78800
O127        O  0.44293717  0.60846251  0.35429570    -0.79000
C128        C  0.41387134  0.60185636  0.37149240     1.01600
Cr129      Cr  0.46567779  0.67159839  0.41288424     1.93700
Cr130      Cr  0.54358826  0.71778311  0.37611578     1.93200
Cr131      Cr  0.49540410  0.62609725  0.37458751     1.39100
O132        O  0.50179979  0.67189874  0.38766578    -1.24100
O133        O  0.58725642  0.47660257  0.42378912    -0.86300
O134        O  0.63103921  0.55394859  0.40565389    -0.83400
C135        C  0.65968066  0.58693644  0.39732910     0.97100
O136        O  0.69039830  0.58952481  0.38475740    -0.83400
O137        O  0.72707156  0.56810269  0.43185365    -0.86000
C138        C  0.73115699  0.54548850  0.45062650     1.01700
O139        O  0.71294169  0.50869461  0.44545626    -0.78800
O140        O  0.63450536  0.48386481  0.45584067    -0.79000
C141        C  0.59966673  0.47694018  0.45177949     1.01600
O142        O  0.60235907  0.45389158  0.36152418    -0.86300
O143        O  0.63992565  0.53090559  0.34201327    -0.83400
C144        C  0.66897705  0.53402298  0.32630624     0.97200
O145        O  0.69861626  0.53715527  0.34072543    -0.83400
O146        O  0.73993061  0.52158501  0.38498936    -0.86000
C147        C  0.72613477  0.48474896  0.38177573     1.01600
O148        O  0.69066558  0.46050618  0.38943046    -0.78800
O149        O  0.61209546  0.42828370  0.40408849    -0.79000
C150        C  0.59646795  0.42416555  0.37692200     1.01600
Cr151      Cr  0.61872593  0.50441480  0.38425669     1.93700
Cr152      Cr  0.71043244  0.55123347  0.38647180     1.93200
Cr153      Cr  0.66265698  0.47311838  0.42191169     1.39100
O154        O  0.66403810  0.50982440  0.39760592    -1.24100
O155        O  0.49873651  0.39672311  0.58464995    -0.86300
O156        O  0.44727691  0.36084569  0.63514015    -0.83400
C157        C  0.41572410  0.33425788  0.62176368     0.97100
O158        O  0.41224781  0.30203498  0.61236321    -0.83400
O159        O  0.43780063  0.25509577  0.58358960    -0.86000
C160        C  0.44646309  0.26782946  0.55524204     1.01700
O161        O  0.47420461  0.30269174  0.55024548    -0.78800
O162        O  0.53652970  0.37846786  0.56075183    -0.79000
C163        C  0.52129696  0.39980785  0.56196678     1.01600
O164        O  0.56271616  0.40119022  0.62137635    -0.86300
O165        O  0.51051585  0.36098028  0.66979482    -0.83400
C166        C  0.48283247  0.33271648  0.68483393     0.97200
O167        O  0.45319651  0.30545599  0.67003042    -0.83400
O168        O  0.48611866  0.26656964  0.63976574    -0.86000
C169        C  0.50709041  0.26078823  0.62011891     1.01600
O170        O  0.51120872  0.27353590  0.59203627    -0.78800
O171        O  0.56684120  0.34971202  0.60790270    -0.79000
C172        C  0.58310858  0.38491255  0.61794660     1.01600
Cr173      Cr  0.50362539  0.37626223  0.62664974     1.93700
Cr174      Cr  0.45005408  0.28531592  0.62537580     1.93200
Cr175      Cr  0.51991399  0.32635869  0.57990686     1.39100
O176        O  0.49091189  0.32950435  0.61051159    -1.24100
O177        O  0.52782860  0.13530841  0.41533020    -0.86300
O178        O  0.45036605  0.09542713  0.39635356    -0.83400
C179        C  0.41647445  0.08757563  0.38763108     0.97100
O180        O  0.41184919  0.11378747  0.37448222    -0.83400
O181        O  0.42912338  0.16966457  0.42232067    -0.86000
C182        C  0.44979656  0.19676137  0.44214521     1.01700
O183        O  0.48638721  0.22034434  0.43732899    -0.78800
O184        O  0.51660975  0.17232077  0.44792735    -0.79000
C185        C  0.52814352  0.14828815  0.44312793     1.01600
O186        O  0.55013548  0.17302487  0.35473335    -0.86300
O187        O  0.47274494  0.12839054  0.33332534    -0.83400
C188        C  0.46830210  0.15345878  0.31813951     0.97200
O189        O  0.46248124  0.17798241  0.33272043    -0.83400
O190        O  0.47413846  0.23333049  0.37761890    -0.86000
C191        C  0.51075116  0.25928840  0.37483690     1.01600
O192        O  0.53680257  0.25126080  0.38234115    -0.78800
O193        O  0.57314657  0.21009632  0.39779032    -0.79000
C194        C  0.57900638  0.19762066  0.37165227     1.01600
Cr195      Cr  0.49921098  0.13560118  0.37581990     1.93700
Cr196      Cr  0.44742294  0.17350404  0.37764055     1.93200
Cr197      Cr  0.52563536  0.21085643  0.41447724     1.39100
O198        O  0.49077855  0.17331089  0.38916518    -1.24100
O199        O  0.89623094  0.48405786  0.58727972    -0.86300
O200        O  0.92310119  0.55987537  0.60679276    -0.83400
C201        C  0.92422321  0.59108980  0.61519268     0.97100
O202        O  0.89429445  0.59006872  0.62806550    -0.83400
O203        O  0.83826700  0.56585848  0.57911243    -0.86000
C204        C  0.81424837  0.54285792  0.55814737     1.01700
O205        O  0.79805726  0.50584728  0.56084871    -0.78800
O206        O  0.85788599  0.49065158  0.55341542    -0.79000
C207        C  0.88569197  0.48450656  0.55876217     1.01600
O208        O  0.85412248  0.45754025  0.64753940    -0.86300
O209        O  0.88879168  0.53400193  0.66902093    -0.83400
C210        C  0.86025311  0.53316234  0.68389894     0.97200
O211        O  0.83185667  0.53181031  0.66881202    -0.83400
O212        O  0.77558519  0.51134285  0.62058101    -0.86000
C213        C  0.75494535  0.47375161  0.61937204     1.01600
O214        O  0.77168368  0.45440334  0.61491697    -0.78800
O215        O  0.82387997  0.43105052  0.60230246    -0.79000
C216        C  0.83236972  0.42743989  0.63071106     1.01600
Cr217      Cr  0.88775552  0.50917856  0.62664774     1.93700
Cr218      Cr  0.83594806  0.54724129  0.62353178     1.93200
Cr219      Cr  0.81507075  0.47313920  0.58466448     1.39100
O220        O  0.84635169  0.51017772  0.61159380    -1.24100
O221        O  0.87440648  0.41562775  0.41771628    -0.86300
O222        O  0.91209288  0.37849323  0.39595365    -0.83400
C223        C  0.91750454  0.35056726  0.38888977     0.97100
O224        O  0.89021081  0.31945101  0.37533248    -0.83400
O225        O  0.83511931  0.27923438  0.42254489    -0.86000
C226        C  0.80961986  0.27314214  0.44357224     1.01700
O227        O  0.78746989  0.28741152  0.44059206    -0.78800
O228        O  0.83892954  0.36741811  0.45071178    -0.79000
C229        C  0.86573818  0.40289227  0.44589099     1.01600
O230        O  0.83215236  0.39847360  0.35839177    -0.86300
O231        O  0.87598078  0.36692788  0.33436003    -0.83400
C232        C  0.85123249  0.33649547  0.31881776     0.97200
O233        O  0.82549162  0.30599578  0.33308772    -0.83400
O234        O  0.77035728  0.26094951  0.37843652    -0.86000
C235        C  0.74474264  0.27144120  0.37763963     1.01600
O236        O  0.75352114  0.30527584  0.38771416    -0.78800
O237        O  0.79788854  0.38457756  0.40275848    -0.79000
C238        C  0.80778431  0.40155877  0.37601263     1.01600
Cr239      Cr  0.87060385  0.38596399  0.37751435     1.93700
Cr240      Cr  0.83057718  0.29487211  0.37827583     1.93200
Cr241      Cr  0.79717185  0.33636231  0.41841125     1.39100
O242        O  0.83273182  0.33897214  0.39124166    -1.24100
O243        O  0.60702597  0.14551123  0.57611207    -0.86300
O244        O  0.63887761  0.10259370  0.59777406    -0.83400
C245        C  0.66290771  0.09345223  0.60850999     0.97100
O246        O  0.69380461  0.11918412  0.62315794    -0.83400
O247        O  0.73795659  0.17823649  0.57852019    -0.86000
C248        C  0.74774237  0.20745814  0.56074401     1.01700
O249        O  0.73788271  0.23239704  0.56806529    -0.78800
O250        O  0.66034536  0.18787830  0.55012304    -0.79000
C251        C  0.62409578  0.16191852  0.55012143     1.01600
O252        O  0.61490433  0.17795278  0.63941573    -0.86300
O253        O  0.64379775  0.13245216  0.66245445    -0.83400
C254        C  0.67367869  0.15448183  0.68004728     0.97200
O255        O  0.70635105  0.17968931  0.66790411    -0.83400
O256        O  0.75660971  0.23852128  0.62767746    -0.86000
C257        C  0.74654777  0.26402755  0.63256447     1.01600
O258        O  0.71274230  0.25665345  0.62389847    -0.78800
O259        O  0.63672138  0.22029485  0.60037038    -0.79000
C260        C  0.61423084  0.20482964  0.62408674     1.01600
Cr261      Cr  0.62993666  0.14233694  0.61837857     1.93700
Cr262      Cr  0.72065463  0.17891703  0.62316963     1.93200
Cr263      Cr  0.68647454  0.22142871  0.58741268     1.39100
O264        O  0.67875507  0.18068447  0.60983710    -1.24100
O265        O  0.65203596  0.50088411  0.05292746    -0.86300
O266        O  0.72812678  0.51929735  0.06853605    -0.83400
C267        C  0.74589164  0.55626676  0.06617810     0.97100
O268        O  0.73933359  0.57620585  0.08628814    -0.83400
O269        O  0.69904227  0.59311663  0.13241936    -0.86000
C270        C  0.66860441  0.59098951  0.11980224     1.01700
O271        O  0.63897753  0.55831868  0.11183132    -0.78800
O272        O  0.60050623  0.48710995  0.08264017    -0.79000
C273        C  0.61673633  0.49318640  0.05532512     1.01600
O274        O  0.62082219  0.43544459  0.09486044    -0.86300
O275        O  0.69644769  0.46254331  0.11706387    -0.83400
C276        C  0.73022052  0.48423015  0.12945682     0.97200
O277        O  0.74537004  0.52167793  0.13072266    -0.83400
O278        O  0.70247790  0.53664232  0.17424303    -0.86000
C279        C  0.67082249  0.52966293  0.18772315     1.01600
O280        O  0.64140374  0.52454367  0.17146539    -0.78800
O281        O  0.60751071  0.45144763  0.14118957    -0.79000
C282        C  0.60177165  0.42540303  0.12071067     1.01600
Cr283      Cr  0.67427644  0.48216530  0.08556911     1.93700
Cr284      Cr  0.71810611  0.55404008  0.12973189     1.93200
Cr285      Cr  0.62586312  0.50607094  0.12611298     1.39100
O286        O  0.67285648  0.51438217  0.11416694    -1.24100
O287        O  0.52274751  0.37513738  0.95403454    -0.86300
O288        O  0.49591066  0.29534217  0.94667519    -0.83400
C289        C  0.45846780  0.27661424  0.94843562     0.97100
O290        O  0.43792299  0.28021413  0.92713990    -0.83400
O291        O  0.42133275  0.31734386  0.87849858    -0.86000
C292        C  0.42383113  0.34848150  0.89006423     1.01700
O293        O  0.45681555  0.37711724  0.89909238    -0.78800
O294        O  0.53452885  0.42046173  0.91872352    -0.79000
C295        C  0.53281942  0.41019979  0.94740769     1.01600
O296        O  0.58152258  0.39277795  0.90530046    -0.86300
O297        O  0.54881652  0.31381256  0.89402757    -0.83400
C298        C  0.52471924  0.27917732  0.88423888     0.97200
O299        O  0.48767679  0.26619185  0.88450730    -0.83400
O300        O  0.47593085  0.30717853  0.83800720    -0.86000
C301        C  0.47985183  0.33637980  0.82288306     1.01600
O302        O  0.48136298  0.36499585  0.83787369    -0.78800
O303        O  0.55872607  0.40147946  0.86023772    -0.79000
C304        C  0.58748190  0.40728522  0.87759729     1.01600
Cr305      Cr  0.53447050  0.34407696  0.92307108     1.93700
Cr306      Cr  0.45869067  0.29634642  0.88299670     1.93200
Cr307      Cr  0.50708182  0.38737455  0.88013148     1.39100
O308        O  0.49990323  0.34241691  0.89549650    -1.24100
O309        O  0.63933666  0.16344418  0.94939972    -0.86300
O310        O  0.71903925  0.21696877  0.94046063    -0.83400
C311        C  0.73559670  0.19707593  0.94384216     0.97100
O312        O  0.72955932  0.17044629  0.92369908    -0.83400
O313        O  0.69068709  0.11448881  0.87474747    -0.86000
C314        C  0.65852140  0.08602721  0.88545395     1.01700
O315        O  0.63016817  0.09069804  0.89327751    -0.78800
O316        O  0.59127377  0.12709285  0.91567126    -0.79000
C317        C  0.60359112  0.13734459  0.94401781     1.01600
O318        O  0.62048441  0.20271377  0.90198682    -0.86300
O319        O  0.69930291  0.24762633  0.88716480    -0.83400
C320        C  0.73418645  0.25759255  0.87945546     0.97200
O321        O  0.74572374  0.23292183  0.87993647    -0.83400
O322        O  0.70320403  0.17732803  0.83314142    -0.86000
C323        C  0.67288054  0.15166342  0.81811767     1.01600
O324        O  0.64155808  0.12781586  0.83283772    -0.78800
O325        O  0.60841146  0.17019540  0.85681723    -0.79000
C326        C  0.60489672  0.19425410  0.87459568     1.01600
Cr327      Cr  0.66945753  0.20483368  0.91766097     1.93700
Cr328      Cr  0.71359652  0.17330400  0.87876063     1.93200
Cr329      Cr  0.62166098  0.13192205  0.87572368     1.39100
O330        O  0.66832741  0.16985143  0.89058689    -1.24100
O331        O  0.84466019  0.47111253  0.94484782    -0.86300
O332        O  0.81889207  0.52207200  0.95499876    -0.83400
C333        C  0.81386104  0.55080877  0.95133570     0.97100
O334        O  0.81389172  0.56321349  0.92347325    -0.83400
O335        O  0.89026211  0.59437127  0.89900215    -0.86000
C336        C  0.92067727  0.59489922  0.88850886     1.01700
O337        O  0.91750753  0.56528985  0.87388497    -0.78800
O338        O  0.90250294  0.51459854  0.92454014    -0.79000
C339        C  0.88215782  0.49084771  0.94635850     1.01600
O340        O  0.78939266  0.43543255  0.89309682    -0.86300
O341        O  0.75917271  0.48293047  0.90625893    -0.83400
C342        C  0.75366069  0.49394018  0.87952674     0.97200
O343        O  0.78243662  0.52015799  0.86376150    -0.83400
O344        O  0.85727937  0.55564917  0.83791213    -0.86000
C345        C  0.85761262  0.52789125  0.82246945     1.01600
O346        O  0.85818235  0.50058148  0.83734124    -0.78800
O347        O  0.85015159  0.44905700  0.88513972    -0.79000
C348        C  0.81333816  0.42446359  0.88578049     1.01600
Cr349      Cr  0.80563983  0.48063473  0.92264772     1.93700
Cr350      Cr  0.83637566  0.55536400  0.88214396     1.93200
Cr351      Cr  0.87907352  0.50808036  0.88120550     1.39100
O352        O  0.84031755  0.51479413  0.89547612    -1.24100
O353        O  0.51717561  0.16508885  0.04983332    -0.86300
O354        O  0.49056618  0.21691978  0.06031658    -0.83400
C355        C  0.45351543  0.19568816  0.05652425     0.97100
O356        O  0.43260271  0.16881437  0.07616460    -0.83400
O357        O  0.41522713  0.11371743  0.12452443    -0.86000
C358        C  0.41875042  0.08610154  0.11246235     1.01700
O359        O  0.45215907  0.09191257  0.10422339    -0.78800
O360        O  0.52842914  0.12935005  0.08298949    -0.79000
C361        C  0.52593450  0.13892044  0.05477758     1.01600
O362        O  0.57612303  0.20508492  0.09821387    -0.86300
O363        O  0.54233456  0.24911292  0.11403969    -0.83400
C364        C  0.51690886  0.25796676  0.12213869     0.97200
O365        O  0.48007368  0.23247657  0.12059861    -0.83400
O366        O  0.46732239  0.17786804  0.16615387    -0.86000
C367        C  0.47137618  0.15240277  0.18074014     1.01600
O368        O  0.47783188  0.12841260  0.16565581    -0.78800
O369        O  0.55478495  0.17193687  0.14265932    -0.79000
C370        C  0.58301247  0.19603669  0.12522579     1.01600
Cr371      Cr  0.52884242  0.20628794  0.08258281     1.93700
Cr372      Cr  0.45194930  0.17285077  0.12093566     1.93200
Cr373      Cr  0.50252651  0.13330099  0.12293384     1.39100
O374        O  0.49428097  0.17071793  0.10894313    -1.24100
O375        O  0.85005459  0.37558726  0.04924725    -0.86300
O376        O  0.79538987  0.29606951  0.05675239    -0.83400
C377        C  0.81388693  0.27772469  0.05454385     0.97100
O378        O  0.83791559  0.28111248  0.07614602    -0.83400
O379        O  0.89195856  0.31757152  0.12647554    -0.86000
C380        C  0.92198256  0.34782488  0.11504910     1.01700
O381        O  0.91964739  0.37688668  0.10570830    -0.78800
O382        O  0.88792700  0.42117426  0.08422214    -0.79000
C383        C  0.87698174  0.41063447  0.05558625     1.01600
O384        O  0.81118558  0.39440725  0.09855311    -0.86300
O385        O  0.76223793  0.31557665  0.11011235    -0.83400
C386        C  0.75052383  0.28075447  0.11878134     0.97200
O387        O  0.77401815  0.26780900  0.11774440    -0.83400
O388        O  0.82738806  0.30951297  0.16546351    -0.86000
C389        C  0.85381440  0.33886570  0.18088489     1.01600
O390        O  0.88210735  0.36749235  0.16637794    -0.78800
O391        O  0.84420416  0.40465885  0.14316844    -0.79000
C392        C  0.82020464  0.40913352  0.12641145     1.01600
Cr393      Cr  0.80735474  0.34520780  0.08071578     1.93700
Cr394      Cr  0.83365562  0.29775321  0.12049770     1.93200
Cr395      Cr  0.88054552  0.38903408  0.12357796     1.39100
O396        O  0.84072943  0.34394336  0.10804734    -1.24100
O397        O  0.40154030  0.51282941  0.91663170    -0.86300
O398        O  0.36378473  0.45501667  0.86970363    -0.83400
C399        C  0.33798279  0.42536658  0.88480568     0.97100
O400        O  0.30726327  0.42418622  0.89533078    -0.83400
O401        O  0.26333591  0.45347876  0.92273711    -0.86000
C402        C  0.27905591  0.46922783  0.94944230     1.01700
O403        O  0.31254454  0.50069552  0.95049381    -0.78800
O404        O  0.38838284  0.55760719  0.93347879    -0.79000
C405        C  0.40759319  0.54010965  0.93596724     1.01600
O406        O  0.40613600  0.57055682  0.87238994    -0.86300
O407        O  0.36193015  0.51150653  0.82972468    -0.83400
C408        C  0.33185144  0.48265782  0.81694019     0.97200
O409        O  0.30403911  0.45638504  0.83382530    -0.83400
O410        O  0.26398848  0.48937960  0.86238972    -0.86000
C411        C  0.25963584  0.51349137  0.87936635     1.01600
O412        O  0.28058524  0.52874326  0.90403950    -0.78800
O413        O  0.35682570  0.57982945  0.88186237    -0.79000
C414        C  0.39141907  0.59248708  0.87132247     1.01600
Cr415      Cr  0.37955753  0.51158536  0.87344635     1.93700
Cr416      Cr  0.28827053  0.45922573  0.87930803     1.93200
Cr417      Cr  0.33443513  0.53878721  0.91531321     1.39100
O418        O  0.33385524  0.50297005  0.88929286    -1.24100
O419        O  0.11964147  0.53046384  0.08390350    -0.86300
O420        O  0.08751474  0.45524272  0.10490398    -0.83400
C421        C  0.08427911  0.42335324  0.11374915     0.97100
O422        O  0.11346612  0.42294809  0.12637400    -0.83400
O423        O  0.17071469  0.44326513  0.07852012    -0.86000
C424        C  0.19753526  0.46523323  0.05910029     1.01700
O425        O  0.21487126  0.50231274  0.06177735    -0.78800
O426        O  0.15774707  0.52172207  0.05067200    -0.79000
C427        C  0.12958400  0.52774888  0.05564412     1.01600
O428        O  0.16174500  0.55940543  0.14370339    -0.86300
O429        O  0.12207995  0.48295837  0.16683125    -0.83400
C430        C  0.14849033  0.48097572  0.18246102     0.97200
O431        O  0.17622209  0.48028576  0.16796099    -0.83400
O432        O  0.23280167  0.49622619  0.12237975    -0.86000
C433        C  0.25614910  0.53350388  0.12274833     1.01600
O434        O  0.24357175  0.55572097  0.11415920    -0.78800
O435        O  0.19316487  0.58189596  0.09846235    -0.79000
C436        C  0.18438185  0.58796670  0.12604044     1.01600
Cr437      Cr  0.12575008  0.50662172  0.12393062     1.93700
Cr438      Cr  0.17253126  0.46341145  0.12287889     1.93200
Cr439      Cr  0.19971571  0.53766763  0.08318594     1.39100
O440        O  0.16589735  0.50230906  0.10998802    -1.24100
O441        O  0.10723805  0.58744432  0.91994498    -0.86300
O442        O  0.08106934  0.63399515  0.89575097    -0.83400
C443        C  0.08159292  0.66469529  0.88693908     0.97100
O444        O  0.11238573  0.69303584  0.87410901    -0.83400
O445        O  0.16772531  0.72832540  0.92244106    -0.86000
C446        C  0.19184874  0.73181874  0.94379074     1.01700
O447        O  0.20778900  0.71104142  0.94267992    -0.78800
O448        O  0.14519419  0.63578753  0.95285117    -0.79000
C449        C  0.11724187  0.60087498  0.94816298     1.01600
O450        O  0.15107096  0.59756559  0.86155862    -0.86300
O451        O  0.11676712  0.63765493  0.83536433    -0.83400
C452        C  0.14529110  0.66496708  0.82003993     0.97200
O453        O  0.17375794  0.69334625  0.83478880    -0.83400
O454        O  0.23003287  0.73256541  0.88199868    -0.86000
C455        C  0.24989895  0.71538105  0.88406379     1.01600
O456        O  0.23293389  0.67978898  0.89211794    -0.78800
O457        O  0.17872389  0.60491239  0.90828244    -0.79000
C458        C  0.17151249  0.59028593  0.88039091     1.01600
Cr459      Cr  0.11694339  0.61737652  0.87902371     1.93700
Cr460      Cr  0.17001095  0.70837464  0.87915510     1.93200
Cr461      Cr  0.18890488  0.65821318  0.92203748     1.39100
O462        O  0.15847949  0.66152578  0.89333973    -1.24100
O463        O  0.50518371  0.89625509  0.92343597    -0.86300
O464        O  0.55634867  0.91615849  0.87253063    -0.83400
C465        C  0.58852235  0.92219009  0.88480401     0.97100
O466        O  0.59297321  0.89375696  0.89262520    -0.83400
O467        O  0.56939500  0.81755722  0.91447492    -0.86000
C468        C  0.56154411  0.81902929  0.94367175     1.01700
O469        O  0.53443985  0.82560279  0.95107605    -0.78800
O470        O  0.47277027  0.83888129  0.94746483    -0.79000
C471        C  0.48567267  0.87549100  0.94690676     1.01600
O472        O  0.44151195  0.83659391  0.88625325    -0.86300
O473        O  0.49318112  0.85233997  0.83578947    -0.83400
C474        C  0.52217932  0.85631173  0.81978577     0.97200
O475        O  0.55276785  0.86084315  0.83362423    -0.83400
O476        O  0.52002573  0.78565449  0.85748506    -0.86000
C477        C  0.49782359  0.75682693  0.87512856     1.01600
O478        O  0.49522930  0.76243608  0.90456404    -0.78800
O479        O  0.43868420  0.78134583  0.89762112    -0.79000
C480        C  0.42154774  0.79958846  0.89012728     1.01600
Cr481      Cr  0.50033616  0.87283291  0.88026764     1.93700
Cr482      Cr  0.55602784  0.83946406  0.87595236     1.93200
Cr483      Cr  0.48745697  0.80476878  0.92313217     1.39100
O484        O  0.51478147  0.83952775  0.89347501    -1.24100
O485        O  0.41100730  0.88804325  0.07954666    -0.86300
O486        O  0.36955084  0.92034942  0.10442299    -0.83400
C487        C  0.34043669  0.92316982  0.11323372     0.97100
O488        O  0.30947556  0.89369454  0.12446088    -0.83400
O489        O  0.27158963  0.83840693  0.07534709    -0.86000
C490        C  0.26655606  0.81298235  0.05439744     1.01700
O491        O  0.28406918  0.79392411  0.05673013    -0.78800
O492        O  0.36288437  0.85103849  0.04600545    -0.79000
C493        C  0.39852255  0.87775595  0.05115348     1.01600
O494        O  0.39767312  0.84439668  0.13771631    -0.86300
O495        O  0.36192027  0.88286460  0.16445531    -0.83400
C496        C  0.33218904  0.85655354  0.17947616     0.97200
O497        O  0.30181991  0.83098798  0.16449262    -0.83400
O498        O  0.26020592  0.77584672  0.11815035    -0.86000
C499        C  0.27411891  0.75306524  0.11871604     1.01600
O500        O  0.30813801  0.76426680  0.10763302    -0.78800
O501        O  0.38591884  0.81382246  0.09171837    -0.79000
C502        C  0.40378932  0.82355948  0.11824073     1.01600
Cr503      Cr  0.38124031  0.88087967  0.12052221     1.93700
Cr504      Cr  0.28934596  0.83542627  0.11951526     1.93200
Cr505      Cr  0.33513597  0.80837796  0.07768478     1.39100
O506        O  0.33513607  0.84167233  0.10603496    -1.24100
O507        O  0.48091595  0.60654770  0.07578075    -0.86300
O508        O  0.55697645  0.64644679  0.10038716    -0.83400
C509        C  0.58930781  0.67297701  0.11246674     0.97100
O510        O  0.59156479  0.70295431  0.12606657    -0.83400
O511        O  0.58074898  0.74412251  0.07758321    -0.86000
C512        C  0.56246747  0.74966667  0.05548999     1.01700
O513        O  0.52517851  0.73402813  0.05646152    -0.78800
O514        O  0.49496410  0.65580781  0.04444164    -0.79000
C515        C  0.48456798  0.62012336  0.04793479     1.01600
O516        O  0.45252583  0.61993567  0.13517827    -0.86300
O517        O  0.52750399  0.65278220  0.16151914    -0.83400
C518        C  0.53213962  0.68200184  0.17794046     0.97200
O519        O  0.53579969  0.71208920  0.16441065    -0.83400
O520        O  0.53015735  0.75898970  0.11852424    -0.86000
C521        C  0.49364189  0.74800384  0.11656129     1.01600
O522        O  0.46864976  0.71380391  0.10692157    -0.78800
O523        O  0.43348309  0.63574335  0.09140899    -0.79000
C524        C  0.42540089  0.61833853  0.11800673     1.01600
Cr525      Cr  0.50535816  0.63509673  0.11728943     1.93700
Cr526      Cr  0.55637563  0.72614243  0.12050824     1.93200
Cr527      Cr  0.48305351  0.68463194  0.07697297     1.39100
O528        O  0.51490185  0.68203058  0.10503490    -1.24100
C529        C  0.43451550  0.81308968  0.12318457    -0.07100
C530        C  0.45643842  0.81544912  0.09598470    -0.18200
C531        C  0.47846808  0.79710337  0.09446541     0.10100
C532        C  0.47993473  0.77619265  0.12099029    -0.07000
C533        C  0.46023842  0.77583032  0.14922423    -0.18300
C534        C  0.43795600  0.79464418  0.15075395     0.10100
S535        S  0.49972209  0.79728481  0.05641763    -0.33200
S536        S  0.41152492  0.79058490  0.18701958    -0.33200
H537        H  0.42225610  0.83050251  0.18753833     0.28100
H538        H  0.53372305  0.80153839  0.07069382     0.28100
H539        H  0.45413787  0.82942793  0.07463312     0.18700
H540        H  0.46047720  0.75912180  0.16951041     0.18700
C541        C  0.57904351  0.80722978  0.96935150    -0.07100
C542        C  0.59226561  0.83022547  0.99743810    -0.18200
C543        C  0.59557236  0.81409316  0.02615101     0.10100
C544        C  0.58287057  0.77349451  0.02718481    -0.07000
C545        C  0.57518307  0.75237765  0.99840907    -0.18300
C546        C  0.57361852  0.76894839  0.96940257     0.10100
S547        S  0.61315327  0.84584541  0.06098774    -0.33200
S548        S  0.55825263  0.73841636  0.93387463    -0.33200
H549        H  0.56139759  0.70720720  0.94646719     0.28100
H550        H  0.62018786  0.82068033  0.07965865     0.28100
H551        H  0.59759461  0.86005061  0.99745814     0.18700
H552        H  0.56569603  0.72130435  0.99921280     0.18700
C553        C  0.42736294  0.89177939  0.02456774    -0.07100
C554        C  0.46390614  0.89441433  0.03006923    -0.18200
C555        C  0.48655868  0.89325069  0.00477455     0.10100
C556        C  0.47369927  0.89205857  0.97310134    -0.07000
C557        C  0.44044152  0.89561874  0.96760816    -0.18300
C558        C  0.41680030  0.89499252  0.99307436     0.10100
S559        S  0.52918288  0.88958099  0.01508009    -0.33200
S560        S  0.37266614  0.89689681  0.98519660    -0.33200
H561        H  0.37403670  0.89503265  0.95168530     0.28100
H562        H  0.54132056  0.88697288  0.98419064     0.28100
H563        H  0.47290675  0.89315917  0.05424563     0.18700
H564        H  0.43086199  0.89497334  0.94326016     0.18700
C565        C  0.20357387  0.76109577  0.96988849    -0.07100
C566        C  0.18367752  0.74839810  0.99910625    -0.18200
C567        C  0.20130233  0.76908987  0.02753251     0.10100
C568        C  0.23971069  0.80314311  0.02682969    -0.07000
C569        C  0.25752465  0.81810420  0.99715370    -0.18300
C570        C  0.23993873  0.79746319  0.96872133     0.10100
S571        S  0.17581551  0.74755684  0.06436583    -0.33200
S572        S  0.26773586  0.81623736  0.93226465    -0.33200
H573        H  0.23447182  0.79914133  0.91190993     0.28100
H574        H  0.19553817  0.78265210  0.08255069     0.28100
H575        H  0.15589936  0.72040247  0.00019696     0.18700
H576        H  0.28718689  0.84379222  0.99638495     0.18700
C577        C  0.29384589  0.73689113  0.88181716    -0.07100
C578        C  0.31296223  0.72098948  0.89909390    -0.18200
C579        C  0.35390239  0.74093804  0.90263291     0.10100
C580        C  0.37769664  0.77753545  0.88720774    -0.07000
C581        C  0.35890004  0.79328432  0.86916494    -0.18300
C582        C  0.31733615  0.77331653  0.86618991     0.10100
S583        S  0.37281720  0.71904522  0.92966573    -0.33200
S584        S  0.29639785  0.79520835  0.84153361    -0.33200
H585        H  0.26622930  0.75900132  0.82867810     0.28100
H586        H  0.39623950  0.75430968  0.94711848     0.28100
H587        H  0.29575368  0.69346482  0.91182990     0.18700
H588        H  0.37667613  0.82116630  0.85704571     0.18700
C589        C  0.11186776  0.53703799  0.02868077    -0.07100
C590        C  0.10529621  0.56862177  0.03269955    -0.18200
C591        C  0.10137871  0.58769525  0.00621728     0.10100
C592        C  0.10293894  0.57403120  0.97537986    -0.07000
C593        C  0.10242872  0.53846571  0.97170110    -0.18300
C594        C  0.10756005  0.52012860  0.99795612     0.10100
S595        S  0.09739554  0.63102888  0.01167518    -0.33200
S596        S  0.11131094  0.47727513  0.98993167    -0.33200
H597        H  0.10399910  0.46329820  0.02125640     0.28100
H598        H  0.10222411  0.63396527  0.04505097     0.28100
H599        H  0.10707153  0.58074974  0.05633799     0.18700
H600        H  0.10274102  0.52734030  0.94798020     0.18700
C601        C  0.20180637  0.62922063  0.13622469    -0.07100
C602        C  0.24197983  0.64911873  0.14477457    -0.18200
C603        C  0.26582515  0.69008649  0.14189153     0.10100
C604        C  0.24919864  0.71186751  0.12985593    -0.07000
C605        C  0.20800093  0.69228239  0.12463913    -0.18300
C606        C  0.18422611  0.65120628  0.12747702     0.10100
S607        S  0.31752391  0.71206941  0.15229407    -0.33200
S608        S  0.13271982  0.62818922  0.11613964    -0.33200
H609        H  0.11967169  0.59322099  0.13332401     0.28100
H610        H  0.32228427  0.74814388  0.16303297     0.28100
H611        H  0.25562666  0.63225902  0.15130683     0.18700
H612        H  0.19462400  0.70855101  0.11600231     0.18700
C613        C  0.29938351  0.55207687  0.13020571    -0.07100
C614        C  0.32109380  0.59303567  0.13648357    -0.18200
C615        C  0.36258156  0.61459878  0.13599143     0.10100
C616        C  0.38345517  0.59546425  0.12801585    -0.07000
C617        C  0.36240985  0.55419953  0.12466580    -0.18300
C618        C  0.32076247  0.53217081  0.12664837     0.10100
S619        S  0.38724048  0.66679700  0.14464318    -0.33200
S620        S  0.29716317  0.47931642  0.12289473    -0.33200
H621        H  0.27277072  0.47207687  0.14973174     0.28100
H622        H  0.42175993  0.66967334  0.15738164     0.28100
H623        H  0.30564748  0.60884182  0.14069286     0.18700
H624        H  0.37838319  0.53918722  0.11922296     0.18700
C625        C  0.25651865  0.45368142  0.97971930    -0.07100
C626        C  0.21469548  0.43306537  0.97904199    -0.18200
C627        C  0.19290974  0.43110803  0.00649493     0.10100
C628        C  0.21345394  0.44986837  0.03481784    -0.07000
C629        C  0.25425937  0.46449332  0.03658103    -0.18300
C630        C  0.27574057  0.46567084  0.00972033     0.10100
S631        S  0.13973464  0.40785383  0.00460778    -0.33200
S632        S  0.32784487  0.48463015  0.01530258    -0.33200
H633        H  0.33024262  0.46193624  0.99026091     0.28100
H634        H  0.13551212  0.39590125  0.97238651     0.28100
H635        H  0.19934851  0.42140585  0.95658958     0.18700
H636        H  0.27012598  0.47802805  0.05856370     0.18700
C637        C  0.43779662  0.55390853  0.96139075    -0.07100
C638        C  0.42720116  0.53363547  0.99034156    -0.18200
C639        C  0.44451627  0.55328780  0.01923710     0.10100
C640        C  0.47357189  0.59423894  0.01903551    -0.07000
C641        C  0.48801373  0.61259426  0.98939569    -0.18300
C642        C  0.47054995  0.59285880  0.96076120     0.10100
S643        S  0.42439566  0.52567411  0.05536874    -0.33200
S644        S  0.48898636  0.61997490  0.92421493    -0.33200
H645        H  0.47541230  0.58637575  0.90446294     0.28100
H646        H  0.46191913  0.53606012  0.06756266     0.28100
H647        H  0.40294786  0.50327117  0.99073719     0.18700
H648        H  0.51132513  0.64344266  0.98851329     0.18700
C649        C  0.41716047  0.63442957  0.86142489    -0.07100
C650        C  0.45816503  0.64936762  0.85736633    -0.18200
C651        C  0.48571019  0.69008666  0.85761080     0.10100
C652        C  0.47217871  0.71655806  0.86223385    -0.07000
C653        C  0.43119791  0.70195642  0.86154511    -0.18300
C654        C  0.40357207  0.66137527  0.86047301     0.10100
S655        S  0.53758397  0.70615246  0.85431028    -0.33200
S656        S  0.35179977  0.64638113  0.85889820    -0.33200
H657        H  0.34130564  0.61405390  0.83827042     0.28100
H658        H  0.54928749  0.74329762  0.84140849     0.28100
H659        H  0.46929450  0.62936242  0.85602128     0.18700
H660        H  0.42046379  0.72221057  0.86327389     0.18700
C661        C  0.18603976  0.56340152  0.87169545    -0.07100
C662        C  0.17498017  0.53107404  0.89169024    -0.18200
C663        C  0.19590230  0.51116465  0.89181287     0.10100
C664        C  0.22929419  0.52391360  0.87188623    -0.07000
C665        C  0.23857217  0.55424525  0.85002884    -0.18300
C666        C  0.21715005  0.57392941  0.84955897     0.10100
S667        S  0.18058872  0.47180137  0.91997100    -0.33200
S668        S  0.23447567  0.61561495  0.82344106    -0.33200
H669        H  0.19658634  0.60882631  0.81622687     0.28100
H670        H  0.19438530  0.45104182  0.90193628     0.28100
H671        H  0.15130634  0.52278781  0.90884486     0.18700
H672        H  0.26443940  0.56463783  0.83491150     0.18700
C673        C  0.04426201  0.38779109  0.11191861    -0.07100
C674        C  0.02387021  0.37237190  0.14065076    -0.18200
C675        C  0.98229142  0.35329201  0.14172120     0.10100
C676        C  0.96106561  0.35099179  0.11373125    -0.07000
C677        C  0.98106447  0.36129552  0.08449774    -0.18300
C678        C  0.02223673  0.37862816  0.08329453     0.10100
S679        S  0.95875952  0.33777314  0.18005508    -0.33200
S680        S  0.04544855  0.39148570  0.04475755    -0.33200
H681        H  0.08156421  0.39591975  0.05508343     0.28100
H682        H  0.92661465  0.30204794  0.16844776     0.28100
H683        H  0.04040280  0.37882715  0.16279547     0.18700
H684        H  0.96486856  0.35837666  0.06271781     0.18700
C685        C  0.34472708  0.96246099  0.11126802    -0.07100
C686        C  0.35857616  0.98254259  0.08230126    -0.18200
C687        C  0.37808723  0.02371442  0.08126005     0.10100
C688        C  0.38465464  0.04545239  0.10982427    -0.07000
C689        C  0.36624059  0.02531158  0.13801246    -0.18300
C690        C  0.34604144  0.98388306  0.13897695     0.10100
S691        S  0.39759102  0.04726445  0.04340261    -0.33200
S692        S  0.32834124  0.96061048  0.17712039    -0.33200
H693        H  0.29239191  0.92940958  0.16484176     0.28100
H694        H  0.39919870  0.08275698  0.05153033     0.28100
H695        H  0.35715470  0.96627987  0.06082036     0.18700
H696        H  0.37096959  0.04185515  0.16001859     0.18700
C697        C  0.62489643  0.21317713  0.13448322    -0.07100
C698        C  0.64450655  0.19362182  0.12478646    -0.18200
C699        C  0.68593106  0.21389539  0.12186293     0.10100
C700        C  0.70843343  0.25502494  0.12861251    -0.07000
C701        C  0.68883389  0.27328718  0.14176299    -0.18300
C702        C  0.64742686  0.25275930  0.14469202     0.10100
S703        S  0.70727993  0.18647354  0.10594755    -0.33200
S704        S  0.62328632  0.27807071  0.15926479    -0.33200
H705        H  0.65695507  0.30905429  0.17457199     0.28100
H706        H  0.73360982  0.19619317  0.13181270     0.28100
H707        H  0.62726870  0.16292779  0.11756416     0.18700
H708        H  0.70575135  0.30438384  0.14805210     0.18700
C709        C  0.96100213  0.62930675  0.89258469    -0.07100
C710        C  0.98201979  0.64799149  0.86470668    -0.18200
C711        C  0.02346925  0.66628465  0.86346608     0.10100
C712        C  0.04416803  0.66479007  0.89039593    -0.07000
C713        C  0.02364960  0.65102507  0.91940377    -0.18300
C714        C  0.98236957  0.63363926  0.92084049     0.10100
S715        S  0.04726784  0.68469518  0.82553646    -0.33200
S716        S  0.95809827  0.61136557  0.95794571    -0.33200
H717        H  0.92502334  0.61538856  0.95274700     0.28100
H718        H  0.07985649  0.71890543  0.83875137     0.28100
H719        H  0.96578137  0.64467429  0.84286098     0.18700
H720        H  0.03933485  0.65010250  0.94034069     0.18700
C721        C  0.90011678  0.48426017  0.97457125    -0.07100
C722        C  0.89009855  0.49420393  0.00378268    -0.18200
C723        C  0.88590547  0.47272073  0.03124367     0.10100
C724        C  0.89198794  0.44040068  0.02986621    -0.07000
C725        C  0.90645167  0.43329654  0.00141686    -0.18300
C726        C  0.91145657  0.45559272  0.97393451     0.10100
S727        S  0.86582822  0.48361559  0.06562209    -0.33200
S728        S  0.92756162  0.44291813  0.93779083    -0.33200
H729        H  0.94260856  0.48001132  0.92349826     0.28100
H730        H  0.89721246  0.48891731  0.08523232     0.28100
H731        H  0.88087997  0.51582360  0.00440084     0.18700
H732        H  0.91179513  0.40898775  0.00010091     0.18700
C733        C  0.65237407  0.04595153  0.88772670    -0.07100
C734        C  0.63553016  0.02490917  0.91585480    -0.18200
C735        C  0.62002310  0.98418673  0.91711355     0.10100
C736        C  0.62014259  0.96360254  0.88946013    -0.07000
C737        C  0.64065158  0.98510081  0.86235950    -0.18300
C738        C  0.65695904  0.02612120  0.86122814     0.10100
S739        S  0.59642357  0.95946347  0.95357886    -0.33200
S740        S  0.67874147  0.05036350  0.82410652    -0.33200
H741        H  0.65701521  0.06953826  0.82242952     0.28100
H742        H  0.60171732  0.92717680  0.94858003     0.28100
H743        H  0.63249823  0.03996708  0.93648985     0.18700
H744        H  0.64043969  0.96941382  0.84088656     0.18700
C745        C  0.57575071  0.12245545  0.97106327    -0.07100
C746        C  0.59030356  0.11951737  0.00073230    -0.18200
C747        C  0.57059407  0.11804426  0.02887470     0.10100
C748        C  0.53737295  0.12287545  0.02748076    -0.07000
C749        C  0.51958800  0.11962005  0.99776986    -0.18300
C750        C  0.53778398  0.11819614  0.96941640     0.10100
S751        S  0.59133069  0.11313989  0.06546928    -0.33200
S752        S  0.51381182  0.11483276  0.93182032    -0.33200
H753        H  0.47689063  0.10579553  0.94448218     0.28100
H754        H  0.55438270  0.08361492  0.07739208     0.28100
H755        H  0.61825042  0.12028930  0.00208894     0.18700
H756        H  0.49269697  0.12064468  0.99674185     0.18700
C757        C  0.80473774  0.25100931  0.02664156    -0.07100
C758        C  0.77176317  0.21245421  0.02865807    -0.18200
C759        C  0.75125732  0.19101962  0.00113024     0.10100
C760        C  0.76390417  0.20843270  0.97079715    -0.07000
C761        C  0.79947591  0.24514357  0.96871678    -0.18300
C762        C  0.82005017  0.26641622  0.99621384     0.10100
S763        S  0.70628896  0.14398078  0.00649714    -0.33200
S764        S  0.86321194  0.31494312  0.99109583    -0.33200
H765        H  0.88006730  0.31716009  0.02120217     0.28100
H766        H  0.70624961  0.12884877  0.97596209     0.28100
H767        H  0.75979323  0.20034594  0.05187847     0.18700
H768        H  0.80938755  0.25897916  0.94561704     0.18700
C769        C  0.76283860  0.29981258  0.87611455    -0.07100
C770        C  0.78325275  0.31942081  0.90397924    -0.18200
C771        C  0.80084618  0.36028225  0.90717368     0.10100
C772        C  0.79874495  0.38216787  0.88164409    -0.07000
C773        C  0.78077015  0.36293821  0.85280594    -0.18300
C774        C  0.76295475  0.32180393  0.84971049     0.10100
S775        S  0.82179801  0.38327822  0.94522648    -0.33200
S776        S  0.74056352  0.29906084  0.81190704    -0.33200
H777        H  0.73851866  0.26293864  0.81725023     0.28100
H778        H  0.81968482  0.35023690  0.95964111     0.28100
H779        H  0.78232106  0.30219451  0.92431832     0.18700
H780        H  0.77980828  0.37987061  0.83296881     0.18700
C781        C  0.38932956  0.35407020  0.89073520    -0.07100
C782        C  0.38222372  0.36908969  0.91891973    -0.18200
C783        C  0.35990523  0.38767508  0.91857164     0.10100
C784        C  0.34534363  0.39257279  0.88926642    -0.07000
C785        C  0.34937259  0.37441903  0.86167569    -0.18300
C786        C  0.37053771  0.35467811  0.86219939     0.10100
S787        S  0.35596691  0.40952849  0.95532266    -0.33200
S788        S  0.37798672  0.33667112  0.82471191    -0.33200
H789        H  0.36929176  0.30009824  0.83713446     0.28100
H790        H  0.31782662  0.40269039  0.94888049     0.28100
H791        H  0.39655387  0.36887205  0.94094506     0.18700
H792        H  0.33871001  0.37841967  0.83899175     0.18700
C793        C  0.43985769  0.24821277  0.97473093    -0.07100
C794        C  0.43834811  0.21202996  0.97166379    -0.18200
C795        C  0.43640458  0.19033064  0.99869684     0.10100
C796        C  0.43630582  0.20523505  0.02933670    -0.07000
C797        C  0.43312372  0.23895970  0.03218863    -0.18300
C798        C  0.43438541  0.26027447  0.00516767     0.10100
S799        S  0.43824580  0.14584972  0.99427525    -0.33200
S800        S  0.43284967  0.30460000  0.01137324    -0.33200
H801        H  0.42164065  0.30714060  0.98005110     0.28100
H802        H  0.44518563  0.14865283  0.96116848     0.28100
H803        H  0.44217168  0.20257966  0.94827784     0.18700
H804        H  0.43327427  0.25076695  0.05572232     0.18700
C805        C  0.62890785  0.43240549  0.86707350    -0.07100
C806        C  0.65005605  0.41399641  0.85852625    -0.18200
C807        C  0.69158304  0.43529424  0.85798820     0.10100
C808        C  0.71251803  0.47542799  0.86761989    -0.07000
C809        C  0.69141567  0.49477531  0.87304453    -0.18300
C810        C  0.64964324  0.47362723  0.87239609     0.10100
S811        S  0.71623632  0.40908381  0.84674114    -0.33200
S812        S  0.62289852  0.49857781  0.88093451    -0.33200
H813        H  0.65634815  0.53697967  0.88301168     0.28100
H814        H  0.75179148  0.44270273  0.83693793     0.28100
H815        H  0.63419225  0.38239982  0.85395239     0.18700
H816        H  0.70750926  0.52565955  0.88008672     0.18700
C817        C  0.58170453  0.21249382  0.86520889    -0.07100
C818        C  0.54086722  0.19205532  0.87167133    -0.18200
C819        C  0.52022443  0.21228574  0.87609111     0.10100
C820        C  0.54108884  0.25408667  0.87369818    -0.07000
C821        C  0.58091711  0.27359411  0.86373503    -0.18300
C822        C  0.60119055  0.25340078  0.85952503     0.10100
S823        S  0.46868494  0.18455992  0.88778379    -0.33200
S824        S  0.65289809  0.28210899  0.84920395    -0.33200
H825        H  0.65445854  0.25042208  0.83511184     0.28100
H826        H  0.46374330  0.14669561  0.88533549     0.28100
H827        H  0.52593398  0.16061220  0.87575090     0.18700
H828        H  0.59715252  0.30535106  0.86061436     0.18700
C829        C  0.66508590  0.62605597  0.11483958    -0.07100
C830        C  0.66420167  0.64727599  0.14163164    -0.18200
C831        C  0.64339314  0.66761970  0.14065802     0.10100
C832        C  0.62309953  0.66626441  0.11233827    -0.07000
C833        C  0.62891127  0.64972522  0.08459665    -0.18300
C834        C  0.64998071  0.63009377  0.08546227     0.10100
S835        S  0.63835662  0.69017685  0.17672225    -0.33200
S836        S  0.65244683  0.60653917  0.04905194    -0.33200
H837        H  0.68528981  0.60364496  0.05822186     0.28100
H838        H  0.66481757  0.68480774  0.19552415     0.28100
H839        H  0.67575979  0.64413233  0.16414835     0.18700
H840        H  0.61427277  0.64939451  0.06257658     0.18700
C841        C  0.77495297  0.57419141  0.03995225    -0.07100
C842        C  0.76273156  0.58328536  0.01146532    -0.18200
C843        C  0.77733748  0.57948125  0.98169173     0.10100
C844        C  0.80567837  0.56743982  0.98053308    -0.07000
C845        C  0.82220494  0.56477340  0.00947563    -0.18300
C846        C  0.80728347  0.56810529  0.03892590     0.10100
S847        S  0.75507422  0.58540346  0.94631166    -0.33200
S848        S  0.82764547  0.55984550  0.07450100    -0.33200
H849        H  0.81491714  0.57924198  0.09540164     0.28100
H850        H  0.74235905  0.54708849  0.93473599     0.28100
H851        H  0.73856581  0.58898063  0.01214571     0.18700
H852        H  0.84504627  0.55711145  0.00921709     0.18700
C853        C  0.59262252  0.48485491  0.02593736    -0.07100
C854        C  0.55120531  0.45976722  0.02789757    -0.18200
C855        C  0.52925672  0.43743292  0.00135371     0.10100
C856        C  0.54914809  0.44074191  0.97251778    -0.07000
C857        C  0.58860262  0.47133635  0.96910769    -0.18300
C858        C  0.61035888  0.49417615  0.99542594     0.10100
S859        S  0.47659776  0.40469642  0.00588307    -0.33200
S860        S  0.66079900  0.53387567  0.98975552    -0.33200
H861        H  0.66022770  0.53306308  0.95615062     0.28100
H862        H  0.46731854  0.40033345  0.97312211     0.28100
H863        H  0.53636081  0.45464480  0.05072509     0.18700
H864        H  0.60338374  0.47510784  0.94647645     0.18700
C865        C  0.57231058  0.38304899  0.12537266    -0.07100
C866        C  0.57394580  0.36382543  0.15283067    -0.18200
C867        C  0.55314503  0.32232502  0.15419594     0.10100
C868        C  0.53031760  0.29988663  0.12752400    -0.07000
C869        C  0.52541688  0.31917489  0.10177741    -0.18300
C870        C  0.54614563  0.36034241  0.10034401     0.10100
S871        S  0.55688549  0.30031906  0.19053015    -0.33200
S872        S  0.54013867  0.38333620  0.06560656    -0.33200
H873        H  0.50936220  0.34889267  0.05106658     0.28100
H874        H  0.53205217  0.26076235  0.18127529     0.28100
H875        H  0.59330179  0.38105779  0.17244220     0.18700
H876        H  0.50743331  0.30180561  0.08161117     0.18700
C877        C  0.75326271  0.46536014  0.13903066    -0.07100
C878        C  0.79490411  0.48844199  0.14179402    -0.18200
C879        C  0.81830334  0.47086070  0.14239614     0.10100
C880        C  0.79979263  0.42937147  0.13871579    -0.07000
C881        C  0.75836974  0.40640990  0.13994491    -0.18300
C882        C  0.73493167  0.42365613  0.14087546     0.10100
S883        S  0.87125282  0.50318654  0.14624897    -0.33200
S884        S  0.68173045  0.39128161  0.14404759    -0.33200
H885        H  0.68037734  0.35810885  0.12993516     0.28100
H886        H  0.87881096  0.47501694  0.15910835     0.28100
H887        H  0.80952998  0.52038074  0.14190482     0.18700
H888        H  0.74419997  0.37454864  0.13867414     0.18700
C889        C  0.67163024  0.15051560  0.71528042    -0.07100
C890        C  0.70666382  0.16022056  0.73185883    -0.18200
C891        C  0.70770639  0.15930153  0.76518732     0.10100
C892        C  0.67314410  0.14935051  0.78283554    -0.07000
C893        C  0.63773095  0.13811990  0.76630135    -0.18300
C894        C  0.63666664  0.13893179  0.73294582     0.10100
S895        S  0.75366387  0.16972200  0.78346413    -0.33200
S896        S  0.59071371  0.12820645  0.71472568    -0.33200
H897        H  0.60870258  0.16474952  0.69910499     0.28100
H898        H  0.73546898  0.14105272  0.80736747     0.28100
H899        H  0.73355773  0.16828929  0.71871809     0.18700
H900        H  0.61097096  0.13040738  0.77950339     0.18700
C901        C  0.85259940  0.33930033  0.21616857    -0.07100
C902        C  0.88826503  0.35398177  0.23321802    -0.18200
C903        C  0.88861109  0.35248760  0.26656916     0.10100
C904        C  0.85255311  0.33675923  0.28358515    -0.07000
C905        C  0.81694892  0.32286085  0.26660736    -0.18300
C906        C  0.81666593  0.32467218  0.23323258     0.10100
S907        S  0.93575219  0.36929067  0.28582847    -0.33200
S908        S  0.77000598  0.31041091  0.21405637    -0.33200
H909        H  0.78649764  0.33941148  0.19021868     0.28100
H910        H  0.92022674  0.34012020  0.30948404     0.28100
H911        H  0.91601514  0.36568492  0.22044074     0.18700
H912        H  0.78932006  0.31186837  0.27951880     0.18700
C913        C  0.77089427  0.21409040  0.53129800    -0.07100
C914        C  0.80845608  0.24854470  0.52961368    -0.18200
C915        C  0.82543330  0.26508420  0.50010177     0.10100
C916        C  0.80355305  0.24836957  0.47178575    -0.07000
C917        C  0.76836919  0.21146661  0.47336115    -0.18300
C918        C  0.75220385  0.19370279  0.50275762     0.10100
S919        S  0.87361746  0.30908360  0.50004719    -0.33200
S920        S  0.70517866  0.14778682  0.50235686    -0.33200
H921        H  0.71183719  0.13335225  0.53072191     0.28100
H922        H  0.88468950  0.29973423  0.47081562     0.28100
H923        H  0.82343269  0.26407899  0.55140010     0.18700
H924        H  0.75201894  0.19770467  0.45171301     0.18700
C925        C  0.86022073  0.53316568  0.71921803    -0.07100
C926        C  0.87051715  0.50837316  0.73474059    -0.18200
C927        C  0.86939901  0.50528698  0.76813477     0.10100
C928        C  0.85834982  0.52836464  0.78683436    -0.07000
C929        C  0.84812710  0.55324998  0.77103403    -0.18300
C930        C  0.84903923  0.55596562  0.73769511     0.10100
S931        S  0.88329337  0.47240140  0.78577160    -0.33200
S932        S  0.83707217  0.59021245  0.72033095    -0.33200
H933        H  0.86546072  0.60249636  0.69581790     0.28100
H934        H  0.88113394  0.45151779  0.75767410     0.28100
H935        H  0.87907387  0.49091945  0.72046927     0.18700
H936        H  0.83954654  0.57109664  0.78474401     0.18700
C937        C  0.90055121  0.47215510  0.53137710    -0.07100
C938        C  0.90419837  0.49090876  0.50221638    -0.18200
C939        C  0.89711287  0.47041785  0.47321603     0.10100
C940        C  0.88516391  0.42986882  0.47350300    -0.07000
C941        C  0.88774910  0.41340056  0.50227176    -0.18300
C942        C  0.89669457  0.43462993  0.53097381     0.10100
S943        S  0.89878764  0.49636974  0.43758765    -0.33200
S944        S  0.89811053  0.41032359  0.56652192    -0.33200
H945        H  0.92961830  0.44486898  0.58039259     0.28100
H946        H  0.92538947  0.48783913  0.42207607     0.28100
H947        H  0.90895938  0.52042418  0.50224858     0.18700
H948        H  0.88085780  0.38329234  0.50269012     0.18700
C949        C  0.77461818  0.30454375  0.64461956    -0.07100
C950        C  0.75789298  0.32577495  0.65753271    -0.18200
C951        C  0.77826356  0.36705970  0.65657270     0.10100
C952        C  0.81647506  0.38749496  0.64325947    -0.07000
C953        C  0.83568876  0.36689112  0.63553690    -0.18300
C954        C  0.81530497  0.32553553  0.63630710     0.10100
S955        S  0.75388941  0.39313965  0.66932061    -0.33200
S956        S  0.84151783  0.30171514  0.62295642    -0.33200
H957        H  0.82673190  0.27379459  0.64764032     0.28100
H958        H  0.72018303  0.36045158  0.68255895     0.28100
H959        H  0.72729008  0.30987510  0.66532701     0.18700
H960        H  0.86592072  0.38293658  0.62692804     0.18700
C961        C  0.46915773  0.15121071  0.21586714    -0.07100
C962        C  0.48294981  0.18705859  0.23233299    -0.18200
C963        C  0.48365134  0.18883778  0.26561938     0.10100
C964        C  0.46897794  0.15350400  0.28303004    -0.07000
C965        C  0.45478545  0.11748932  0.26665744    -0.18300
C966        C  0.45465745  0.11585694  0.23323961     0.10100
S967        S  0.50574170  0.23676735  0.28517276    -0.33200
S968        S  0.43404317  0.06831086  0.21341444    -0.33200
H969        H  0.42597347  0.04537367  0.24101554     0.28100
H970        H  0.51531644  0.25981953  0.25751011     0.28100
H971        H  0.49417909  0.21401160  0.21900641     0.18700
H972        H  0.44322906  0.09051152  0.28015642     0.18700
C973        C  0.55128235  0.14376879  0.46809221    -0.07100
C974        C  0.59221718  0.16959632  0.46618896    -0.18200
C975        C  0.61729078  0.17505299  0.49168302     0.10100
C976        C  0.60073365  0.15316000  0.52014016    -0.07000
C977        C  0.55971097  0.12486979  0.52087023    -0.18300
C978        C  0.53478055  0.12002880  0.49517690     0.10100
S979        S  0.66937740  0.21245746  0.48733413    -0.33200
S980        S  0.48260726  0.08370038  0.49874672    -0.33200
H981        H  0.47207662  0.08362323  0.46671201     0.28100
H982        H  0.66806980  0.22370079  0.45580090     0.28100
H983        H  0.60427344  0.18767910  0.44517205     0.18700
H984        H  0.54655820  0.10737571  0.54206205     0.18700
C985        C  0.70324044  0.24399883  0.36673015    -0.07100
C986        C  0.68588474  0.25872599  0.34607918    -0.18200
C987        C  0.64463963  0.24237388  0.34485401     0.10100
C988        C  0.62001511  0.20908867  0.36354107    -0.07000
C989        C  0.63695036  0.19070607  0.38027183    -0.18300
C990        C  0.67819377  0.20748641  0.38169608     0.10100
S991        S  0.62578260  0.26764487  0.32179974    -0.33200
S992        S  0.69679918  0.18247703  0.40489962    -0.33200
H993        H  0.72574146  0.18791193  0.38235861     0.28100
H994        H  0.58671413  0.23562871  0.31853162     0.28100
H995        H  0.70486427  0.28435688  0.33196383     0.18700
H996        H  0.61802880  0.16437772  0.39396594     0.18700
C997        C  0.48389598  0.33301440  0.72011538    -0.07100
C998        C  0.50075754  0.36951459  0.73619372    -0.18200
C999        C  0.50029217  0.37176809  0.76959534     0.10100
C1000       C  0.48162080  0.33643544  0.78751699    -0.07000
C1001       C  0.46565745  0.29999966  0.77133668    -0.18300
C1002       C  0.46721794  0.29797900  0.73810178     0.10100
S1003       S  0.52486368  0.42011112  0.78847005    -0.33200
S1004       S  0.44972306  0.25008219  0.72026517    -0.33200
H1005       H  0.48337914  0.26380330  0.70074515     0.28100
H1006       H  0.54544437  0.44182977  0.76134549     0.28100
H1007       H  0.51380094  0.39643788  0.72245482     0.18700
H1008       H  0.45228071  0.27273855  0.78468288     0.18700
C1009       C  0.43227737  0.20256143  0.47112797    -0.07100
C1010       C  0.42087131  0.23085828  0.47059587    -0.18200
C1011       C  0.42025711  0.24997752  0.49875011     0.10100
C1012       C  0.43057478  0.24005646  0.52795214    -0.07000
C1013       C  0.43591875  0.20763680  0.52881069    -0.18300
C1014       C  0.43730748  0.18906564  0.50072485     0.10100
S1015       S  0.40816633  0.28800369  0.49605111    -0.33200
S1016       S  0.45041489  0.15173644  0.50396298    -0.33200
H1017       H  0.43354798  0.13279115  0.47468430     0.28100
H1018       H  0.38973333  0.27947053  0.52615014     0.28100
H1019       H  0.41520494  0.24006245  0.44799410     0.35500
H1020       H  0.44335970  0.19949710  0.55114731     0.18700
C1021       C  0.71100252  0.45149836  0.62000203    -0.07100
C1022       C  0.69027721  0.46622577  0.63682626    -0.18200
C1023       C  0.64853572  0.44469961  0.63815037     0.10100
C1024       C  0.62692060  0.40775057  0.62195185    -0.07000
C1025       C  0.64800901  0.39314572  0.60570171    -0.18300
C1026       C  0.68906502  0.41463894  0.60374075     0.10100
S1027       S  0.62507828  0.46554583  0.66154928    -0.33200
S1028       S  0.71064016  0.39409314  0.57748826    -0.33200
H1029       H  0.73483993  0.42987814  0.56150993     0.28100
H1030       H  0.59651813  0.42922629  0.67484521     0.28100
H1031       H  0.70663635  0.49427585  0.64941167     0.18700
H1032       H  0.63232958  0.36542744  0.59255723     0.18700
C1033       C  0.58400115  0.21536819  0.63109133    -0.07100
C1034       C  0.54607480  0.19114241  0.61794931    -0.18200
C1035       C  0.51844699  0.20348414  0.61704819     0.10100
C1036       C  0.52888309  0.24107633  0.62934086    -0.07000
C1037       C  0.56589873  0.26418433  0.64443611    -0.18300
C1038       C  0.59345984  0.25164358  0.64555237     0.10100
S1039       S  0.47122477  0.17071918  0.59843733    -0.33200
S1040       S  0.64093436  0.28413136  0.66397751    -0.33200
H1041       H  0.64924457  0.25449114  0.67164277     0.28100
H1042       H  0.45051114  0.18671386  0.61351482     0.28100
H1043       H  0.53866000  0.16325697  0.60673265     0.18700
H1044       H  0.57437801  0.29327859  0.65364658     0.18700
C1045       C  0.66821663  0.53305306  0.29078129    -0.07100
C1046       C  0.68742691  0.51594300  0.27496168    -0.18200
C1047       C  0.68717696  0.51285206  0.24164449     0.10100
C1048       C  0.66854424  0.52854075  0.22312130    -0.07000
C1049       C  0.64864747  0.54501074  0.23882244    -0.18300
C1050       C  0.64814581  0.54737067  0.27237076     0.10100
S1051       S  0.70953433  0.48679736  0.22441561    -0.33200
S1052       S  0.62395148  0.57097268  0.29098920    -0.33200
H1053       H  0.60540543  0.57380517  0.26329284     0.28100
H1054       H  0.68130032  0.46849391  0.19979000     0.28100
H1055       H  0.70186719  0.50373491  0.28873821     0.18700
H1056       H  0.63450218  0.55718616  0.22468604     0.18700
C1057       C  0.75960122  0.56058996  0.47757201    -0.07100
C1058       C  0.79432781  0.55920007  0.47351039    -0.18200
C1059       C  0.81551461  0.55755668  0.49968624     0.10100
C1060       C  0.80221721  0.55791874  0.53094403    -0.07000
C1061       C  0.76966617  0.56304330  0.53514247    -0.18300
C1062       C  0.74809329  0.56414168  0.50886865     0.10100
S1063       S  0.85657944  0.55065115  0.49137421    -0.33200
S1064       S  0.70385891  0.56560425  0.51724675    -0.33200
H1065       H  0.69770624  0.57425071  0.48620633     0.28100
H1066       H  0.87460978  0.56255344  0.52153408     0.28100
H1067       H  0.80299955  0.55572718  0.44972919     0.18700
H1068       H  0.75887104  0.56271600  0.55905861     0.18700
C1069       C  0.57333765  0.46638210  0.48016929    -0.07100
C1070       C  0.59169873  0.48082322  0.50998769    -0.18200
C1071       C  0.57215577  0.46326223  0.53837332     0.10100
C1072       C  0.53347795  0.42990532  0.53721031    -0.07000
C1073       C  0.51318645  0.41853631  0.50795910    -0.18300
C1074       C  0.53234775  0.43715514  0.47950191     0.10100
S1075       S  0.60006007  0.48121315  0.57504542    -0.33200
S1076       S  0.50390886  0.41916922  0.44325035    -0.33200
H1077       H  0.51653957  0.45726071  0.43184408     0.28100
H1078       H  0.56666017  0.46791264  0.59483533     0.28100
H1079       H  0.62250863  0.50411143  0.51113496     0.18700
H1080       H  0.48345508  0.39286937  0.50687474     0.18700
C1081       C  0.56828946  0.38384405  0.36558608    -0.07100
C1082       C  0.53213765  0.36354816  0.38176669    -0.18200
C1083       C  0.50976024  0.32234316  0.38187413     0.10100
C1084       C  0.52427938  0.30057098  0.36602307    -0.07000
C1085       C  0.55841994  0.32101603  0.34690393    -0.18300
C1086       C  0.58019396  0.36246073  0.34609934     0.10100
S1087       S  0.46661357  0.29996540  0.40691467    -0.33200
S1088       S  0.62459598  0.38621261  0.32220491    -0.33200
H1089       H  0.62617105  0.42243579  0.31920768     0.28100
H1090       H  0.44190353  0.27344250  0.38302548     0.28100
H1091       H  0.52284698  0.37990128  0.39654123     0.18700
H1092       H  0.56959216  0.30470343  0.33415250     0.18700
C1093       C  0.75126422  0.46851285  0.37140989    -0.07100
C1094       C  0.73130184  0.42897675  0.36105040    -0.18200
C1095       C  0.75056509  0.40779749  0.35869615     0.10100
C1096       C  0.79091714  0.42587430  0.36678315    -0.07000
C1097       C  0.81232913  0.46654786  0.37362294    -0.18300
C1098       C  0.79304767  0.48836514  0.37567870     0.10100
S1099       S  0.72104932  0.35676696  0.34766666    -0.33200
S1100       S  0.82179996  0.54026091  0.38597092    -0.33200
H1101       H  0.85907903  0.54335532  0.38737665     0.28100
H1102       H  0.75271138  0.35445444  0.33430983     0.28100
H1103       H  0.69965149  0.41349086  0.35651646     0.18700
H1104       H  0.84352118  0.48047423  0.37956445     0.18700
C1105       C  0.52848329  0.67531733  0.28062411    -0.07100
C1106       C  0.55198531  0.71189872  0.26561523    -0.18200
C1107       C  0.55521116  0.71481452  0.23238649     0.10100
C1108       C  0.53335831  0.68054363  0.21319491    -0.07000
C1109       C  0.51096378  0.64376771  0.22811277    -0.18300
C1110       C  0.50813679  0.64076331  0.26138622     0.10100
S1111       S  0.58923275  0.76286134  0.21624388    -0.33200
S1112       S  0.47587810  0.59234148  0.27743956    -0.33200
H1113       H  0.45338918  0.60478545  0.29458913     0.28100
H1114       H  0.60392295  0.74850101  0.19230262     0.28100
H1115       H  0.56869947  0.73854449  0.27992480     0.18700
H1116       H  0.49418319  0.61719587  0.21372585     0.18700
C1117       C  0.61399824  0.66311923  0.39315782    -0.07100
C1118       C  0.61520176  0.64706280  0.42260662    -0.18200
C1119       C  0.63510669  0.62642446  0.42598329     0.10100
C1120       C  0.65411661  0.62124238  0.39930867    -0.07000
C1121       C  0.65752374  0.64182801  0.37115106    -0.18300
C1122       C  0.63778846  0.66288541  0.36786178     0.10100
S1123       S  0.63197751  0.60401201  0.46402807    -0.33200
S1124       S  0.63882584  0.68327402  0.32936804    -0.33200
H1125       H  0.64260354  0.71820771  0.34198874     0.28100
H1126       H  0.66715847  0.60343776  0.45982210     0.28100
H1127       H  0.59747811  0.64749498  0.44234173     0.18700
H1128       H  0.67205682  0.63811584  0.35051305     0.18700
C1129       C  0.33356193  0.86106091  0.28270968    -0.07100
C1130       C  0.31140963  0.82468331  0.26648228    -0.18200
C1131       C  0.31101786  0.82204238  0.23306042     0.10100
C1132       C  0.33277353  0.85689009  0.21498632    -0.07000
C1133       C  0.35576526  0.89318716  0.23120494    -0.18300
C1134       C  0.35614004  0.89573845  0.26463823     0.10100
S1135       S  0.28406271  0.77370433  0.21423809    -0.33200
S1136       S  0.38430880  0.94432199  0.28245257    -0.33200
H1137       H  0.35523962  0.93775918  0.30526159     0.28100
H1138       H  0.27512017  0.75123887  0.24221483     0.28100
H1139       H  0.29453727  0.79795194  0.28017602     0.18700
H1140       H  0.37268962  0.92013409  0.21769334     0.18700
C1141       C  0.34575985  0.96314293  0.39345685    -0.07100
C1142       C  0.34077278  0.98168144  0.36687339    -0.18200
C1143       C  0.35996838  0.02321269  0.36542794     0.10100
C1144       C  0.38369585  0.04624846  0.39144984    -0.07000
C1145       C  0.38373852  0.02727318  0.41956585    -0.18300
C1146       C  0.36537481  0.98624461  0.42084891     0.10100
S1147       S  0.35843571  0.04637053  0.32889816    -0.33200
S1148       S  0.37142498  0.96574757  0.45726032    -0.33200
H1149       H  0.33964476  0.92726048  0.45168234     0.28100
H1150       H  0.33438454  0.01134529  0.31140505     0.28100
H1151       H  0.32544499  0.96397359  0.34600157     0.18700
H1152       H  0.40131382  0.04479381  0.43986063     0.18700
C1153       C  0.42187405  0.80211642  0.36533207    -0.07100
C1154       C  0.40256166  0.76421130  0.35171718    -0.18200
C1155       C  0.42141710  0.74225895  0.34964649     0.10100
C1156       C  0.45991627  0.75804497  0.36264528    -0.07000
C1157       C  0.48076771  0.79772436  0.37296883    -0.18300
C1158       C  0.46202208  0.81992513  0.37434777     0.10100
S1159       S  0.39592175  0.69405079  0.33077901    -0.33200
S1160       S  0.48831972  0.86977430  0.38993496    -0.33200
H1161       H  0.52538035  0.87277093  0.39349386     0.28100
H1162       H  0.35968294  0.69212475  0.32527878     0.28100
H1163       H  0.37201583  0.75115007  0.34424448     0.18700
H1164       H  0.51053400  0.81026582  0.38240292     0.18700
C1165       C  0.14652324  0.47979441  0.21792128    -0.07100
C1166       C  0.12408184  0.49368802  0.23336926    -0.18200
C1167       C  0.12187353  0.49467388  0.26677574     0.10100
C1168       C  0.14319780  0.48215069  0.28541743    -0.07000
C1169       C  0.16528137  0.46793489  0.27011935    -0.18300
C1170       C  0.16677118  0.46606981  0.23683864     0.10100
S1171       S  0.09034151  0.51028604  0.28506357    -0.33200
S1172       S  0.19375301  0.44433064  0.22045388    -0.33200
H1173       H  0.16358642  0.41995235  0.19860295     0.28100
H1174       H  0.07195201  0.51197306  0.25683551     0.28100
H1175       H  0.10835886  0.50412585  0.21921162     0.18700
H1176       H  0.18134071  0.45780802  0.28427534     0.18700
C1177       C  0.04000814  0.38645603  0.39435404    -0.07100
C1178       C  0.02202568  0.39304599  0.42063156    -0.18200
C1179       C  0.98131028  0.37898433  0.42086527     0.10100
C1180       C  0.95744075  0.35639241  0.39453244    -0.07000
C1181       C  0.97472253  0.34522831  0.37035914    -0.18300
C1182       C  0.01584532  0.36067084  0.36969820     0.10100
S1183       S  0.96307845  0.39455283  0.45415136    -0.33200
S1184       S  0.03647355  0.35079124  0.33480424    -0.33200
H1185       H  0.07288178  0.36071550  0.34904249     0.28100
H1186       H  0.92329225  0.36432038  0.45123278     0.28100
H1187       H  0.04051029  0.41330222  0.43940324     0.18700
H1188       H  0.95687360  0.32761332  0.35025646     0.18700
C1189       C  0.20606100  0.62852332  0.37481072    -0.07100
C1190       C  0.23693551  0.64768196  0.35272440    -0.18200
C1191       C  0.25414964  0.68810325  0.34702760     0.10100
C1192       C  0.24125743  0.71016604  0.36456559    -0.07000
C1193       C  0.20803550  0.69039773  0.38438105    -0.18300
C1194       C  0.19038981  0.64982562  0.38988474     0.10100
S1195       S  0.29308211  0.71027963  0.31770727    -0.33200
S1196       S  0.15155213  0.62712555  0.41941328    -0.33200
H1197       H  0.14559675  0.65911473  0.42362890     0.28100
H1198       H  0.29031085  0.74400302  0.31298468     0.28100
H1199       H  0.24804964  0.63120630  0.34019007     0.18700
H1200       H  0.19860070  0.70746576  0.39816670     0.18700
C1201       C  0.37259942  0.57206516  0.36237423    -0.07100
C1202       C  0.35064522  0.58380049  0.34407192    -0.18200
C1203       C  0.30892212  0.56192551  0.34419022     0.10100
C1204       C  0.28878252  0.52807349  0.36353202    -0.07000
C1205       C  0.31075290  0.51420096  0.37904576    -0.18300
C1206       C  0.35228697  0.53536766  0.37806097     0.10100
S1207       S  0.28312732  0.58086668  0.32199832    -0.33200
S1208       S  0.37783641  0.51548329  0.39917142    -0.33200
H1209       H  0.41211338  0.53374780  0.38008172     0.28100
H1210       H  0.24803660  0.54416976  0.31738730     0.28100
H1211       H  0.36595007  0.61139601  0.33133132     0.18700
H1212       H  0.29556652  0.48805851  0.39373877     0.18700
C1213       C  0.52150635  0.85721505  0.78476697    -0.07100
C1214       C  0.50540653  0.82149808  0.76770622    -0.18200
C1215       C  0.50715126  0.82099048  0.73429792     0.10100
C1216       C  0.52654427  0.85713096  0.71750625    -0.07000
C1217       C  0.54219977  0.89281938  0.73477951    -0.18300
C1218       C  0.53970575  0.89320641  0.76810950     0.10100
S1219       S  0.48261942  0.77332091  0.71462910    -0.33200
S1220       S  0.56099499  0.94050679  0.78815977    -0.33200
H1221       H  0.53278571  0.92754746  0.81280434     0.28100
H1222       H  0.46740479  0.78484654  0.68936029     0.28100
H1223       H  0.49130757  0.79380496  0.78052266     0.18700
H1224       H  0.55660469  0.92068007  0.72221339     0.18700
C1225       C  0.65195206  0.05136321  0.60540631    -0.07100
C1226       C  0.62816232  0.02979535  0.57917874    -0.18200
C1227       C  0.60631898  0.98852132  0.57894505     0.10100
C1228       C  0.60740070  0.96755587  0.60571925    -0.07000
C1229       C  0.63453137  0.98875102  0.63040269    -0.18300
C1230       C  0.65714101  0.03036570  0.63035927     0.10100
S1231       S  0.57579981  0.96426658  0.54440432    -0.33200
S1232       S  0.68826146  0.05473125  0.66452601    -0.33200
H1233       H  0.72155445  0.07997854  0.64590306     0.28100
H1234       H  0.57807969  0.93005464  0.54738358     0.28100
H1235       H  0.62470235  0.04527526  0.55936637     0.18700
H1236       H  0.63594473  0.97307267  0.65098231     0.18700
C1237       C  0.55432333  0.77254484  0.46522998    -0.07100
C1238       C  0.53865828  0.79742322  0.46636847    -0.18200
C1239       C  0.53992726  0.81767024  0.49428869     0.10100
C1240       C  0.55597757  0.81226950  0.52258454    -0.07000
C1241       C  0.57602714  0.79127675  0.52056250    -0.18300
C1242       C  0.57640457  0.77237978  0.49182585     0.10100
S1243       S  0.51742317  0.84738321  0.49275003    -0.33200
S1244       S  0.60279895  0.74628720  0.49131464    -0.33200
H1245       H  0.61638481  0.75657980  0.45980685     0.28100
H1246       H  0.53822038  0.87121575  0.51915195     0.28100
H1247       H  0.52289833  0.79911489  0.44579613     0.18700
H1248       H  0.58917731  0.78740014  0.54187472     0.18700
C1249       C  0.40821220  0.87959795  0.47949543    -0.07100
C1250       C  0.38547088  0.86296504  0.50721348    -0.18200
C1251       C  0.40269975  0.86015053  0.53529224     0.10100
C1252       C  0.44370312  0.87481943  0.53603686    -0.07000
C1253       C  0.46732711  0.89636428  0.51012926    -0.18300
C1254       C  0.45007615  0.89994605  0.48211194     0.10100
S1255       S  0.37117405  0.83300057  0.56834323    -0.33200
S1256       S  0.48291876  0.92976749  0.45076029    -0.33200
H1257       H  0.45952021  0.94584527  0.44220177     0.28100
H1258       H  0.33608532  0.82997881  0.55681704     0.28100
H1259       H  0.35349091  0.84857838  0.50612748     0.18700
H1260       H  0.49918051  0.90936436  0.51134852     0.18700
C1261       C  0.14707519  0.66869880  0.71712846    -0.07100
C1262       C  0.12457216  0.63236862  0.73262001    -0.18200
C1263       C  0.12349513  0.62996548  0.76592377     0.10100
C1264       C  0.14488084  0.66490021  0.78462335    -0.07000
C1265       C  0.16699575  0.70129153  0.76899072    -0.18300
C1266       C  0.16865582  0.70347527  0.73569898     0.10100
S1267       S  0.09572244  0.58118824  0.78259982    -0.33200
S1268       S  0.20129690  0.75099251  0.71841070    -0.33200
H1269       H  0.22327803  0.73713592  0.70227441     0.28100
H1270       H  0.12687847  0.58706471  0.80270342     0.28100
H1271       H  0.10804609  0.60542064  0.71862218     0.18700
H1272       H  0.18376485  0.72836558  0.78277802     0.18700
C1273       C  0.96312780  0.62753944  0.61281174    -0.07100
C1274       C  0.98391130  0.64351130  0.64145386    -0.18200
C1275       C  0.02529490  0.66154099  0.64238398     0.10100
C1276       C  0.04606044  0.66370504  0.61416571    -0.07000
C1277       C  0.02590923  0.65324151  0.58490599    -0.18300
C1278       C  0.98459772  0.63551954  0.58396875     0.10100
S1279       S  0.04969315  0.67744405  0.68063603    -0.33200
S1280       S  0.96006472  0.61855579  0.54584678    -0.33200
H1281       H  0.92474932  0.61644431  0.55571210     0.28100
H1282       H  0.08588718  0.70769530  0.66823374     0.28100
H1283       H  0.96773661  0.63760640  0.66370619     0.18700
H1284       H  0.04182584  0.65547249  0.56309130     0.18700
C1285       C  0.11061744  0.52832517  0.47757494    -0.07100
C1286       C  0.12978224  0.52507329  0.50442377    -0.18200
C1287       C  0.13203323  0.54454115  0.53299773     0.10100
C1288       C  0.11606791  0.56937629  0.53472629    -0.07000
C1289       C  0.09252946  0.56891645  0.50927067    -0.18300
C1290       C  0.08885984  0.54766205  0.48088025     0.10100
S1291       S  0.15838759  0.53998853  0.56631175    -0.33200
S1292       S  0.05925600  0.54917352  0.44886507    -0.33200
H1293       H  0.04756650  0.51125352  0.43697882     0.28100
H1294       H  0.16783834  0.51348485  0.55201153     0.28100
H1295       H  0.14673927  0.51072389  0.50189034     0.18700
H1296       H  0.07938210  0.58719657  0.51058006     0.18700
C1297       C  0.19792949  0.75688927  0.52422783    -0.07100
C1298       C  0.22962022  0.79627172  0.52506836    -0.18200
C1299       C  0.24720784  0.81654278  0.49672549     0.10100
C1300       C  0.23357200  0.79692305  0.46699180    -0.07000
C1301       C  0.19897367  0.75941785  0.46619808    -0.18300
C1302       C  0.18058762  0.73958599  0.49438435     0.10100
S1303       S  0.28956050  0.86572189  0.49989618    -0.33200
S1304       S  0.13667909  0.69110492  0.49072671    -0.33200
H1305       H  0.12098744  0.69199980  0.52077430     0.28100
H1306       H  0.27902521  0.87875525  0.47260769     0.28100
H1307       H  0.24291634  0.81020461  0.54776587     0.18700
H1308       H  0.18787874  0.74423474  0.44350236     0.18700
C1309       C  0.29204925  0.76103623  0.63911778    -0.07100
C1310       C  0.30750049  0.73642605  0.64394042    -0.18200
C1311       C  0.34820816  0.75205837  0.64761034     0.10100
C1312       C  0.37439410  0.79328461  0.64645326    -0.07000
C1313       C  0.35852559  0.81810420  0.64603305    -0.18300
C1314       C  0.31751632  0.80236683  0.64202711     0.10100
S1315       S  0.36541601  0.71786599  0.65086072    -0.33200
S1316       S  0.30046182  0.83642510  0.63628591    -0.33200
H1317       H  0.26186883  0.81133756  0.64779094     0.28100
H1318       H  0.40088777  0.74472997  0.66666254     0.28100
H1319       H  0.28806111  0.70465048  0.64269377     0.18700
H1320       H  0.37841994  0.84984866  0.64497290     0.18700
C1321       C  0.33575355  0.48005244  0.71423031    -0.07100
C1322       C  0.29981697  0.46937704  0.72983933    -0.18200
C1323       C  0.29721779  0.46910269  0.76318637     0.10100
C1324       C  0.33108460  0.47927284  0.78175851    -0.07000
C1325       C  0.36657174  0.48859680  0.76637713    -0.18300
C1326       C  0.36946337  0.48899195  0.73303076     0.10100
S1327       S  0.25079831  0.45834953  0.78055750    -0.33200
S1328       S  0.41707965  0.50270333  0.71565066    -0.33200
H1329       H  0.43609771  0.50213945  0.74388790     0.28100
H1330       H  0.26874794  0.49171631  0.80081654     0.28100
H1331       H  0.27358108  0.46203820  0.71600245     0.18700
H1332       H  0.39246839  0.49619440  0.78076162     0.18700
C1333       C  0.34445277  0.38560269  0.61323933    -0.07100
C1334       C  0.36048292  0.37871604  0.58571788    -0.18200
C1335       C  0.38087936  0.35841724  0.58702949     0.10100
C1336       C  0.38392283  0.34289299  0.61645220    -0.07000
C1337       C  0.36372363  0.34560720  0.64321604    -0.18300
C1338       C  0.34401626  0.36694985  0.64194505     0.10100
S1339       S  0.40752963  0.35984636  0.55134405    -0.33200
S1340       S  0.32362855  0.37498776  0.67798445    -0.33200
H1341       H  0.32986473  0.34995549  0.69763942     0.28100
H1342       H  0.42176880  0.33558911  0.56104578     0.28100
H1343       H  0.36120213  0.39335719  0.56371263     0.18700
H1344       H  0.36661672  0.33419681  0.66582217     0.18700
C1345       C  0.20214197  0.44490243  0.47395067    -0.07100
C1346       C  0.23489492  0.43999491  0.47010446    -0.18200
C1347       C  0.25574193  0.43862831  0.49681364     0.10100
C1348       C  0.24422600  0.44313556  0.52766559    -0.07000
C1349       C  0.20842531  0.44245682  0.53151485    -0.18300
C1350       C  0.18662893  0.44207429  0.50493571     0.10100
S1351       S  0.29878877  0.43424593  0.49156125    -0.33200
S1352       S  0.13958675  0.43834273  0.51196817    -0.33200
H1353       H  0.12430378  0.42507273  0.48103452     0.28100
H1354       H  0.29549971  0.42874329  0.45821516     0.28100
H1355       H  0.24623968  0.44078834  0.44634421     0.18700
H1356       H  0.19873470  0.44484090  0.55526525     0.18700
C1357       C  0.43641337  0.54100568  0.52584597    -0.07100
C1358       C  0.46549743  0.58104034  0.52908875    -0.18200
C1359       C  0.48198279  0.60457616  0.50225990     0.10100
C1360       C  0.46866016  0.58778661  0.47153706    -0.07000
C1361       C  0.44511494  0.54644565  0.46855830    -0.18300
C1362       C  0.42891190  0.52287567  0.49552353     0.10100
S1363       S  0.51848419  0.65585516  0.50898773    -0.33200
S1364       S  0.39822833  0.47023211  0.48993026    -0.33200
H1365       H  0.39923721  0.46039824  0.52197868     0.28100
H1366       H  0.53975344  0.65939160  0.48086142     0.28100
H1367       H  0.47265333  0.59490927  0.55248611     0.18700
H1368       H  0.43725700  0.53258427  0.44521633     0.18700
C1369       C  0.43824145  0.62840698  0.62902773    -0.07100
C1370       C  0.47421919  0.65128164  0.61273728    -0.18200
C1371       C  0.49417463  0.69269524  0.61320311     0.10100
C1372       C  0.47753007  0.71201856  0.62995141    -0.07000
C1373       C  0.44343783  0.68909074  0.64850347    -0.18300
C1374       C  0.42350172  0.64771420  0.64811111     0.10100
S1375       S  0.53752890  0.71864487  0.58847491    -0.33200
S1376       S  0.37662290  0.62170137  0.66877486    -0.33200
H1377       H  0.37757855  0.58735356  0.67503125     0.28100
H1378       H  0.56090330  0.74481790  0.61306911     0.28100
H1379       H  0.48563405  0.63673428  0.59791334     0.18700
H1380       H  0.43067141  0.70349165  0.66181411     0.18700
C1381       C  0.22449032  0.59732794  0.62579518    -0.07100
C1382       C  0.26308428  0.61641494  0.61331427    -0.18200
C1383       C  0.28431303  0.59735499  0.60927947     0.10100
C1384       C  0.26710412  0.55728288  0.61889900    -0.07000
C1385       C  0.22916773  0.53850281  0.63301552    -0.18300
C1386       C  0.20795407  0.55817743  0.63692425     0.10100
S1387       S  0.33186386  0.62503101  0.58904511    -0.33200
S1388       S  0.16023573  0.53175142  0.65609747    -0.33200
H1389       H  0.16455424  0.56519177  0.67226813     0.28100
H1390       H  0.33606724  0.66263642  0.58999514     0.28100
H1391       H  0.27621253  0.64624038  0.60454188     0.18700
H1392       H  0.21582178  0.50824605  0.64097158     0.18700
loop_ 
_geom_bond_atom_site_label_1 
_geom_bond_atom_site_label_2 
_geom_bond_distance 
_geom_bond_site_symmetry_2 
_ccdc_geom_bond_type 
O1          Cr19   1.970       .  S
O1            C9   1.258       .  A
O2          Cr19   1.993       .  S
O2            C3   1.260       .  A
C3            O4   1.261       .  A
C3         C1348   1.474       .  S
O4          Cr20   1.996       .  S
O5          Cr20   2.040       .  S
O5            C6   1.275       .  A
C6            O7   1.260       .  A
C6         C1333   1.476       .  S
O7          Cr21   1.951       .  S
O8          Cr21   2.016       .  S
O8            C9   1.266       .  A
C9         C1357   1.464       .  S
O10         Cr19   2.008       .  S
O10          C18   1.264       .  A
O11         Cr19   1.940       .  S
O11          C12   1.251       .  A
C12          O13   1.275       .  A
C12        C1384   1.492       .  S
O13         Cr20   2.048       .  S
O14         Cr20   1.978       .  S
O14          C15   1.260       .  A
C15          O16   1.262       .  A
C15        C1321   1.489       .  S
O16         Cr21   2.001       .  S
O17         Cr21   1.994       .  S
O17          C18   1.263       .  A
C18        C1369   1.476       .  S
Cr19         O22   1.749       .  S
Cr20         O22   1.777       .  S
Cr21         O22   1.765       .  S
O23         Cr41   2.001       .  S
O23          C31   1.265       .  A
O24         Cr41   1.961       .  S
O24          C25   1.260       .  A
C25          O26   1.273       .  A
C25        C1297   1.482       .  S
O26         Cr42   2.036       .  S
O27         Cr42   1.978       .  S
O27          C28   1.261       .  A
C28          O29   1.269       .  A
C28        C1276   1.469       .  S
O29         Cr43   2.012       .  S
O30         Cr43   2.001       .  S
O30          C31   1.263       .  A
C31        C1288   1.481       .  S
O32         Cr41   1.955       .  S
O32          C40   1.256       .  A
O33         Cr41   2.001       .  S
O33          C34   1.260       .  A
C34          O35   1.255       .  A
C34        C1309   1.474       .  S
O35         Cr42   1.988       .  S
O36         Cr42   2.011       .  S
O36          C37   1.267       .  A
C37          O38   1.259       .  A
C37        C1261   1.478       .  S
O38         Cr43   1.968       .  S
O39         Cr43   2.036       .  S
O39          C40   1.269       .  A
C40        C1381   1.492       .  S
Cr41         O44   1.752       .  S
Cr42         O44   1.774       .  S
Cr43         O44   1.773       .  S
O45         Cr63   1.970       .  S
O45          C53   1.258       .  A
O46         Cr63   2.001       .  S
O46          C47   1.264       .  A
C47          O48   1.267       .  A
C47        C1240   1.487       .  S
O48         Cr64   2.011       .  S
O49         Cr64   2.039       .  S
O49          C50   1.271       .  A
C50          O51   1.257       .  A
C50        C1228   1.486       .  S
O51         Cr65   1.963       .  S
O52         Cr65   2.004       .  S
O52          C53   1.263       .  A
C53        C1252   1.463       .  S
O54         Cr63   1.996       .  S
O54          C62   1.263       .  A
O55         Cr63   1.966       .  S
O55          C56   1.258       .  A
C56          O57   1.270       .  A
C56        C1372   1.486       .  S
O57         Cr64   2.032       .  S
O58         Cr64   1.987       .  S
O58          C59   1.262       .  A
C59          O60   1.264       .  A
C59        C1216   1.480       .  S
O60         Cr65   1.999       .  S
O61         Cr65   1.990       .  S
O61          C62   1.260       .  A
C62        C1312   1.476       .  S
Cr63         O66   1.759       .  S
Cr64         O66   1.780       .  S
Cr65         O66   1.779       .  S
O67         Cr85   1.995       .  S
O67          C75   1.266       .  A
O68         Cr85   1.983       .  S
O68          C69   1.261       .  A
C69          O70   1.267       .  A
C69        C1345   1.483       .  S
O70         Cr86   2.017       .  S
O71         Cr86   2.002       .  S
O71          C72   1.263       .  A
C72          O73   1.258       .  A
C72        C1177   1.467       .  S
O73         Cr87   1.983       .  S
O74         Cr87   2.002       .  S
O74          C75   1.265       .  A
C75        C1285   1.480       .  S
O76         Cr85   1.989       .  S
O76          C84   1.262       .  A
O77         Cr85   1.996       .  S
O77          C78   1.263       .  A
C78          O79   1.262       .  A
C78        C1204   1.476       .  S
O79         Cr86   1.996       .  S
O80         Cr86   2.009       .  S
O80          C81   1.269       .  A
C81          O82   1.263       .  A
C81        C1168   1.478       .  S
O82         Cr87   1.975       .  S
O83         Cr87   1.993       .  S
O83          C84   1.260       .  A
C84        C1189   1.474       .  S
Cr85         O88   1.760       .  S
Cr86         O88   1.777       .  S
Cr87         O88   1.775       .  S
O89        Cr107   1.945       .  S
O89          C97   1.258       .  A
O90        Cr107   2.000       .  S
O90          C91   1.261       .  A
C91          O92   1.263       .  A
C91        C1300   1.479       .  S
O92        Cr108   2.006       .  S
O93        Cr108   2.027       .  S
O93          C94   1.269       .  A
C94          O95   1.257       .  A
C94        C1141   1.480       .  S
O95        Cr109   1.961       .  S
O96        Cr109   2.033       .  S
O96          C97   1.272       .  A
C97        C1249   1.485       .  S
O98        Cr107   2.000       .  S
O98         C106   1.260       .  A
O99        Cr107   1.956       .  S
O99         C100   1.257       .  A
C100        O101   1.274       .  A
C100       C1192   1.469       .  S
O101       Cr108   2.036       .  S
O102       Cr108   1.966       .  S
O102        C103   1.261       .  A
C103        O104   1.270       .  A
C103       C1129   1.486       .  S
O104       Cr109   2.019       .  S
O105       Cr109   1.989       .  S
O105        C106   1.256       .  A
C106       C1153   1.471       .  S
Cr107       O110   1.753       .  S
Cr108       O110   1.771       .  S
Cr109       O110   1.768       .  S
O111       Cr129   1.969       .  S
O111        C119   1.262       .  A
O112       Cr129   2.000       .  S
O112        C113   1.263       .  A
C113        O114   1.262       .  A
C113       C1237   1.490       .  S
O114       Cr130   2.006       .  S
O115       Cr130   2.029       .  S
O115        C116   1.269       .  A
C116        O117   1.256       .  A
C116       C1117   1.480       .  S
O117       Cr131   1.957       .  S
O118       Cr131   2.007       .  S
O118        C119   1.268       .  A
C119       C1360   1.479       .  S
O120       Cr129   2.009       .  S
O120        C128   1.262       .  A
O121       Cr129   1.968       .  S
O121        C122   1.262       .  A
C122        O123   1.274       .  A
C122       C1156   1.484       .  S
O123       Cr130   2.031       .  S
O124       Cr130   1.973       .  S
O124        C125   1.260       .  A
C125        O126   1.264       .  A
C125       C1105   1.484       .  S
O126       Cr131   2.004       .  S
O127       Cr131   1.994       .  S
O127        C128   1.258       .  A
C128       C1201   1.480       .  S
Cr129       O132   1.762       .  S
Cr130       O132   1.778       .  S
Cr131       O132   1.773       .  S
O133       Cr151   2.025       .  S
O133        C141   1.268       .  A
O134       Cr151   1.962       .  S
O134        C135   1.258       .  A
C135        O136   1.270       .  A
C135       C1120   1.479       .  S
O136       Cr152   2.033       .  S
O137       Cr152   2.004       .  S
O137        C138   1.266       .  A
C138        O139   1.262       .  A
C138       C1057   1.478       .  S
O139       Cr153   1.993       .  S
O140       Cr153   1.970       .  S
O140        C141   1.262       .  A
C141       C1069   1.489       .  S
O142       Cr151   1.985       .  S
O142        C150   1.257       .  A
O143       Cr151   2.012       .  S
O143        C144   1.266       .  A
C144        O145   1.261       .  A
C144       C1045   1.488       .  S
O145       Cr152   1.978       .  S
O146       Cr152   2.027       .  S
O146        C147   1.269       .  A
C147        O148   1.261       .  A
C147       C1093   1.489       .  S
O148       Cr153   1.962       .  S
O149       Cr153   1.999       .  S
O149        C150   1.263       .  A
C150       C1081   1.469       .  S
Cr151       O154   1.771       .  S
Cr152       O154   1.776       .  S
Cr153       O154   1.756       .  S
O155       Cr173   1.993       .  S
O155        C163   1.261       .  A
O156       Cr173   2.002       .  S
O156        C157   1.267       .  A
C157        O158   1.266       .  A
C157       C1336   1.472       .  S
O158       Cr174   1.989       .  S
O159       Cr174   2.022       .  S
O159        C160   1.269       .  A
C160        O161   1.259       .  A
C160       C1012   1.473       .  S
O161       Cr175   1.975       .  S
O162       Cr175   1.986       .  S
O162        C163   1.260       .  A
C163       C1072   1.467       .  S
O164       Cr173   2.014       .  S
O164        C172   1.266       .  A
O165       Cr173   1.973       .  S
O165        C166   1.259       .  A
C166        O167   1.264       .  A
C166        C997   1.478       .  S
O167       Cr174   2.003       .  S
O168       Cr174   2.002       .  S
O168        C169   1.262       .  A
C169        O170   1.261       .  A
C169       C1036   1.476       .  S
O170       Cr175   2.001       .  S
O171       Cr175   1.965       .  S
O171        C172   1.261       .  A
C172       C1024   1.485       .  S
Cr173       O176   1.772       .  S
Cr174       O176   1.772       .  S
Cr175       O176   1.758       .  S
O177       Cr195   2.006       .  S
O177        C185   1.264       .  A
O178       Cr195   1.955       .  S
O178        C179   1.256       .  A
C179        O180   1.269       .  A
C179       C1144   1.478       .  S
O180       Cr196   2.032       .  S
O181       Cr196   1.981       .  S
O181        C182   1.259       .  A
C182        O183   1.264       .  A
C182       C1009   1.466       .  S
O183       Cr197   2.003       .  S
O184       Cr197   1.971       .  S
O184        C185   1.258       .  A
C185        C973   1.458       .  S
O186       Cr195   1.985       .  S
O186        C194   1.260       .  A
O187       Cr195   2.006       .  S
O187        C188   1.266       .  A
C188        O189   1.255       .  A
C188        C964   1.470       .  S
O189       Cr196   1.952       .  S
O190       Cr196   2.031       .  S
O190        C191   1.271       .  A
C191        O192   1.258       .  A
C191       C1084   1.481       .  S
O192       Cr197   1.966       .  S
O193       Cr197   2.005       .  S
O193        C194   1.264       .  A
C194        C988   1.471       .  S
Cr195       O198   1.768       .  S
Cr196       O198   1.775       .  S
Cr197       O198   1.755       .  S
O199       Cr217   2.028       .  S
O199        C207   1.268       .  A
O200       Cr217   1.947       .  S
O200        C201   1.256       .  A
C201        O202   1.274       .  A
C201       C1273   1.468       .  S
O202       Cr218   2.038       .  S
O203       Cr218   1.991       .  S
O203        C204   1.262       .  A
C204        O205   1.264       .  A
C204       C1060   1.476       .  S
O205       Cr219   2.006       .  S
O206       Cr219   1.957       .  S
O206        C207   1.256       .  A
C207        C937   1.473       .  S
O208       Cr217   1.980       .  S
O208        C216   1.257       .  A
O209       Cr217   2.008       .  S
O209        C210   1.267       .  A
C210        O211   1.260       .  A
C210        C925   1.479       .  S
O211       Cr218   1.978       .  S
O212       Cr218   2.046       .  S
O212        C213   1.273       .  A
C213        O214   1.250       .  A
C213       C1021   1.480       .  S
O214       Cr219   1.941       .  S
O215       Cr219   2.010       .  S
O215        C216   1.265       .  A
C216        C952   1.467       .  S
Cr217       O220   1.765       .  S
Cr218       O220   1.776       .  S
Cr219       O220   1.745       .  S
O221       Cr239   2.002       .  S
O221        C229   1.262       .  A
O222       Cr239   1.961       .  S
O222        C223   1.257       .  A
C223        O224   1.270       .  A
C223       C1180   1.483       .  S
O224       Cr240   2.026       .  S
O225       Cr240   1.997       .  S
O225        C226   1.260       .  A
C226        O227   1.263       .  A
C226        C916   1.480       .  S
O227       Cr241   2.004       .  S
O228       Cr241   1.983       .  S
O228        C229   1.264       .  A
C229        C940   1.482       .  S
O230       Cr239   1.987       .  S
O230        C238   1.261       .  A
O231       Cr239   2.002       .  S
O231        C232   1.264       .  A
C232        O233   1.260       .  A
C232        C904   1.476       .  S
O233       Cr240   1.980       .  S
O234       Cr240   2.032       .  S
O234        C235   1.270       .  A
C235        O236   1.263       .  A
C235        C985   1.489       .  S
O236       Cr241   1.978       .  S
O237       Cr241   2.005       .  S
O237        C238   1.264       .  A
C238       C1096   1.474       .  S
Cr239       O242   1.778       .  S
Cr240       O242   1.777       .  S
Cr241       O242   1.761       .  S
O243       Cr261   2.022       .  S
O243        C251   1.271       .  A
O244       Cr261   1.966       .  S
O244        C245   1.257       .  A
C245        O246   1.266       .  A
C245       C1225   1.490       .  S
O246       Cr262   2.027       .  S
O247       Cr262   1.992       .  S
O247        C248   1.261       .  A
C248        O249   1.264       .  A
C248        C913   1.474       .  S
O249       Cr263   2.005       .  S
O250       Cr263   1.953       .  S
O250        C251   1.255       .  A
C251        C976   1.486       .  S
O252       Cr261   1.981       .  S
O252        C260   1.257       .  A
O253       Cr261   2.023       .  S
O253        C254   1.272       .  A
C254        O255   1.260       .  A
C254        C889   1.483       .  S
O255       Cr262   1.959       .  S
O256       Cr262   2.034       .  S
O256        C257   1.271       .  A
C257        O258   1.258       .  A
C257        C949   1.483       .  S
O258       Cr263   1.955       .  S
O259       Cr263   2.005       .  S
O259        C260   1.262       .  A
C260       C1033   1.474       .  S
Cr261       O264   1.765       .  S
Cr262       O264   1.775       .  S
Cr263       O264   1.756       .  S
O265       Cr283   1.967       .  S
O265        C273   1.261       .  A
O266       Cr283   1.988       .  S
O266        C267   1.257       .  A
C267        O268   1.260       .  A
C267        C841   1.479       .  S
O268       Cr284   2.011       .  S
O269       Cr284   2.033       .  S
O269        C270   1.271       .  A
C270        O271   1.256       .  A
C270        C829   1.476       .  S
O271       Cr285   1.950       .  S
O272       Cr285   2.020       .  S
O272        C273   1.271       .  A
C273        C853   1.482       .  S
O274       Cr283   1.996       .  S
O274        C282   1.260       .  A
O275       Cr283   1.954       .  S
O275        C276   1.260       .  A
C276        O277   1.278       .  A
C276        C877   1.495       .  S
O277       Cr284   2.046       .  S
O278       Cr284   1.977       .  S
O278        C279   1.260       .  A
C279        O280   1.265       .  A
C279       C1048   1.484       .  S
O280       Cr285   2.008       .  S
O281       Cr285   1.997       .  S
O281        C282   1.260       .  A
C282        C865   1.478       .  S
Cr283       O286   1.759       .  S
Cr284       O286   1.777       .  S
Cr285       O286   1.772       .  S
O287       Cr305   1.985       .  S
O287        C295   1.261       .  A
O288       Cr305   2.000       .  S
O288        C289   1.264       .  A
C289        O290   1.261       .  A
C289        C793   1.476       .  S
O290       Cr306   1.992       .  S
O291       Cr306   2.032       .  S
O291        C292   1.272       .  A
C292        O293   1.259       .  A
C292        C781   1.481       .  S
O293       Cr307   1.967       .  S
O294       Cr307   1.999       .  S
O294        C295   1.262       .  A
C295        C856   1.467       .  S
O296       Cr305   2.007       .  S
O296        C304   1.266       .  A
O297       Cr305   1.970       .  S
O297        C298   1.261       .  A
C298        O299   1.270       .  A
C298        C820   1.494       .  S
O299       Cr306   2.028       .  S
O300       Cr306   1.975       .  S
O300        C301   1.258       .  A
C301        O302   1.261       .  A
C301       C1000   1.482       .  S
O302       Cr307   1.998       .  S
O303       Cr307   1.989       .  S
O303        C304   1.262       .  A
C304        C805   1.473       .  S
Cr305       O308   1.760       .  S
Cr306       O308   1.777       .  S
Cr307       O308   1.774       .  S
O309       Cr327   1.970       .  S
O309        C317   1.262       .  A
O310       Cr327   1.994       .  S
O310        C311   1.260       .  A
C311        O312   1.264       .  A
C311        C760   1.482       .  S
O312       Cr328   2.007       .  S
O313       Cr328   2.017       .  S
O313        C314   1.267       .  A
C314        O315   1.261       .  A
C314        C733   1.476       .  S
O315       Cr329   1.970       .  S
O316       Cr329   2.005       .  S
O316        C317   1.264       .  A
C317        C745   1.473       .  S
O318       Cr327   1.995       .  S
O318        C326   1.260       .  A
O319       Cr327   1.963       .  S
O319        C320   1.258       .  A
C320        O321   1.268       .  A
C320        C769   1.461       .  S
O321       Cr328   2.018       .  S
O322       Cr328   1.979       .  S
O322        C323   1.261       .  A
C323        O324   1.263       .  A
C323        C892   1.480       .  S
O324       Cr329   1.995       .  S
O325       Cr329   2.003       .  S
O325        C326   1.263       .  A
C326        C817   1.478       .  S
Cr327       O330   1.760       .  S
Cr328       O330   1.781       .  S
Cr329       O330   1.775       .  S
O331       Cr349   1.990       .  S
O331        C339   1.265       .  A
O332       Cr349   1.965       .  S
O332        C333   1.258       .  A
C333        O334   1.269       .  A
C333        C844   1.492       .  S
O334       Cr350   2.033       .  S
O335       Cr350   1.995       .  S
O335        C336   1.262       .  A
C336        O337   1.262       .  A
C336        C709   1.471       .  S
O337       Cr351   1.993       .  S
O338       Cr351   1.990       .  S
O338        C339   1.263       .  A
C339        C721   1.470       .  S
O340       Cr349   1.977       .  S
O340        C348   1.257       .  A
O341       Cr349   1.997       .  S
O341        C342   1.263       .  A
C342        O343   1.261       .  A
C342        C808   1.475       .  S
O343       Cr350   1.992       .  S
O344       Cr350   2.022       .  S
O344        C345   1.272       .  A
C345        O346   1.260       .  A
C345        C928   1.492       .  S
O346       Cr351   1.970       .  S
O347       Cr351   2.006       .  S
O347        C348   1.261       .  A
C348        C772   1.468       .  S
Cr349       O352   1.761       .  S
Cr350       O352   1.781       .  S
Cr351       O352   1.775       .  S
O353       Cr371   1.981       .  S
O353        C361   1.264       .  A
O354       Cr371   1.992       .  S
O354        C355   1.261       .  A
C355        O356   1.262       .  A
C355        C796   1.473       .  S
O356       Cr372   1.999       .  S
O357       Cr372   2.022       .  S
O357        C358   1.267       .  A
C358        O359   1.258       .  A
C358        C688   1.471       .  S
O359       Cr373   1.963       .  S
O360       Cr373   2.001       .  S
O360        C361   1.263       .  A
C361        C748   1.478       .  S
O362       Cr371   1.994       .  S
O362        C370   1.261       .  A
O363       Cr371   1.977       .  S
O363        C364   1.261       .  A
C364        O365   1.269       .  A
C364        C868   1.470       .  S
O365       Cr372   2.020       .  S
O366       Cr372   1.966       .  S
O366        C367   1.259       .  A
C367        O368   1.262       .  A
C367        C961   1.473       .  S
O368       Cr373   1.996       .  S
O369       Cr373   1.996       .  S
O369        C370   1.261       .  A
C370        C697   1.472       .  S
Cr371       O374   1.759       .  S
Cr372       O374   1.778       .  S
Cr373       O374   1.771       .  S
O375       Cr393   1.984       .  S
O375        C383   1.261       .  A
O376       Cr393   2.003       .  S
O376        C377   1.265       .  A
C377        O378   1.265       .  A
C377        C757   1.481       .  S
O378       Cr394   1.999       .  S
O379       Cr394   2.019       .  S
O379        C380   1.267       .  A
C380        O381   1.262       .  A
C380        C676   1.476       .  S
O381       Cr395   1.973       .  S
O382       Cr395   2.017       .  S
O382        C383   1.267       .  A
C383        C724   1.482       .  S
O384       Cr393   2.005       .  S
O384        C392   1.265       .  A
O385       Cr393   1.977       .  S
O385        C386   1.261       .  A
C386        O387   1.264       .  A
C386        C700   1.487       .  S
O387       Cr394   2.012       .  S
O388       Cr394   1.979       .  S
O388        C389   1.260       .  A
C389        O390   1.264       .  A
C389        C901   1.478       .  S
O390       Cr395   2.006       .  S
O391       Cr395   1.995       .  S
O391        C392   1.261       .  A
C392        C880   1.481       .  S
Cr393       O396   1.763       .  S
Cr394       O396   1.780       .  S
Cr395       O396   1.776       .  S
O397       Cr415   1.995       .  S
O397        C405   1.261       .  A
O398       Cr415   1.990       .  S
O398        C399   1.260       .  A
C399        O400   1.262       .  A
C399        C784   1.477       .  S
O400       Cr416   2.000       .  S
O401       Cr416   2.022       .  S
O401        C402   1.270       .  A
C402        O403   1.262       .  A
C402        C625   1.489       .  S
O403       Cr417   1.969       .  S
O404       Cr417   2.000       .  S
O404        C405   1.263       .  A
C405        C637   1.472       .  S
O406       Cr415   2.002       .  S
O406        C414   1.265       .  A
O407       Cr415   1.958       .  S
O407        C408   1.259       .  A
C408        O409   1.270       .  A
C408       C1324   1.477       .  S
O409       Cr416   2.021       .  S
O410       Cr416   2.004       .  S
O410        C411   1.262       .  A
C411        O412   1.261       .  A
C411        C664   1.482       .  S
O412       Cr417   1.998       .  S
O413       Cr417   1.983       .  S
O413        C414   1.262       .  A
C414        C649   1.491       .  S
Cr415       O418   1.774       .  S
Cr416       O418   1.780       .  S
Cr417       O418   1.767       .  S
O419       Cr437   2.004       .  S
O419        C427   1.266       .  A
O420       Cr437   1.960       .  S
O420        C421   1.257       .  A
C421        O422   1.271       .  A
C421        C673   1.475       .  S
O422       Cr438   2.036       .  S
O423       Cr438   2.000       .  S
O423        C424   1.262       .  A
C424        O425   1.260       .  A
C424        C628   1.472       .  S
O425       Cr439   1.982       .  S
O426       Cr439   1.973       .  S
O426        C427   1.262       .  A
C427        C589   1.472       .  S
O428       Cr437   1.991       .  S
O428        C436   1.261       .  A
O429       Cr437   2.003       .  S
O429        C430   1.264       .  A
C430        O431   1.258       .  A
C430       C1165   1.487       .  S
O431       Cr438   1.976       .  S
O432       Cr438   2.032       .  S
O432        C433   1.271       .  A
C433        O434   1.263       .  A
C433        C613   1.495       .  S
O434       Cr439   1.972       .  S
O435       Cr439   1.990       .  S
O435        C436   1.260       .  A
C436        C601   1.463       .  S
Cr437       O440   1.768       .  S
Cr438       O440   1.773       .  S
Cr439       O440   1.757       .  S
O441       Cr459   2.012       .  S
O441        C449   1.268       .  A
O442       Cr459   1.960       .  S
O442        C443   1.260       .  A
C443        O444   1.272       .  A
C443        C712   1.479       .  S
O444       Cr460   2.031       .  S
O445       Cr460   1.989       .  S
O445        C446   1.258       .  A
C446        O447   1.262       .  A
C446        C565   1.473       .  S
O447       Cr461   2.005       .  S
O448       Cr461   1.960       .  S
O448        C449   1.257       .  A
C449        C592   1.464       .  S
O450       Cr459   2.001       .  S
O450        C458   1.263       .  A
O451       Cr459   2.004       .  S
O451        C452   1.263       .  A
C452        O453   1.260       .  A
C452       C1264   1.483       .  S
O453       Cr460   1.972       .  S
O454       Cr460   2.041       .  S
O454        C455   1.274       .  A
C455        O456   1.255       .  A
C455        C577   1.484       .  S
O456       Cr461   1.944       .  S
O457       Cr461   2.006       .  S
O457        C458   1.264       .  A
C458        C661   1.482       .  S
Cr459       O462   1.765       .  S
Cr460       O462   1.770       .  S
Cr461       O462   1.750       .  S
O463       Cr481   1.986       .  S
O463        C471   1.261       .  A
O464       Cr481   2.001       .  S
O464        C465   1.269       .  A
C465        O466   1.267       .  A
C465        C736   1.469       .  S
O466       Cr482   1.990       .  S
O467       Cr482   2.031       .  S
O467        C468   1.268       .  A
C468        O469   1.256       .  A
C468        C541   1.479       .  S
O469       Cr483   1.970       .  S
O470       Cr483   1.988       .  S
O470        C471   1.261       .  A
C471        C556   1.467       .  S
O472       Cr481   2.013       .  S
O472        C480   1.264       .  A
O473       Cr481   1.985       .  S
O473        C474   1.259       .  A
C474        O475   1.262       .  A
C474       C1213   1.468       .  S
O475       Cr482   2.003       .  S
O476       Cr482   1.997       .  S
O476        C477   1.262       .  A
C477        O478   1.263       .  A
C477        C652   1.473       .  S
O478       Cr483   1.996       .  S
O479       Cr483   1.958       .  S
O479        C480   1.255       .  A
C480        C580   1.482       .  S
Cr481       O484   1.771       .  S
Cr482       O484   1.778       .  S
Cr483       O484   1.757       .  S
O485       Cr503   2.012       .  S
O485        C493   1.268       .  A
O486       Cr503   1.962       .  S
O486        C487   1.259       .  A
C487        O488   1.267       .  A
C487        C685   1.474       .  S
O488       Cr504   2.018       .  S
O489       Cr504   2.004       .  S
O489        C490   1.263       .  A
C490        O491   1.258       .  A
C490        C568   1.474       .  S
O491       Cr505   1.985       .  S
O492       Cr505   1.982       .  S
O492        C493   1.263       .  A
C493        C553   1.480       .  S
O494       Cr503   1.997       .  S
O494        C502   1.260       .  A
O495       Cr503   2.004       .  S
O495        C496   1.264       .  A
C496        O497   1.260       .  A
C496       C1132   1.487       .  S
O497       Cr504   1.979       .  S
O498       Cr504   2.017       .  S
O498        C499   1.270       .  A
C499        O500   1.261       .  A
C499        C604   1.481       .  S
O500       Cr505   1.966       .  S
O501       Cr505   1.983       .  S
O501        C502   1.262       .  A
C502        C529   1.479       .  S
Cr503       O506   1.773       .  S
Cr504       O506   1.776       .  S
Cr505       O506   1.762       .  S
O507       Cr525   2.017       .  S
O507        C515   1.265       .  A
O508       Cr525   1.969       .  S
O508        C509   1.261       .  A
C509        O510   1.269       .  A
C509        C832   1.481       .  S
O510       Cr526   2.027       .  S
O511       Cr526   1.992       .  S
O511        C512   1.260       .  A
C512        O513   1.264       .  A
C512        C544   1.474       .  S
O513       Cr527   1.995       .  S
O514       Cr527   1.970       .  S
O514        C515   1.258       .  A
C515        C640   1.489       .  S
O516       Cr525   1.987       .  S
O516        C524   1.261       .  A
O517       Cr525   2.008       .  S
O517        C518   1.266       .  A
C518        O519   1.260       .  A
C518       C1108   1.480       .  S
O519       Cr526   1.973       .  S
O520       Cr526   2.031       .  S
O520        C521   1.270       .  A
C521        O522   1.255       .  A
C521        C532   1.474       .  S
O522       Cr527   1.963       .  S
O523       Cr527   2.007       .  S
O523        C524   1.266       .  A
C524        C616   1.476       .  S
Cr525       O528   1.771       .  S
Cr526       O528   1.780       .  S
Cr527       O528   1.760       .  S
C529        C530   1.401       .  A
C529        C534   1.414       .  A
C530        C531   1.386       .  A
C530        H539   1.083       .  S
C531        C532   1.409       .  A
C531        S535   1.795       .  S
C532        C533   1.407       .  A
C533        C534   1.410       .  A
C533        H540   1.083       .  S
C534        S536   1.799       .  S
S535        H538   1.393       .  S
S536        H537   1.405       .  S
C541        C542   1.405       .  A
C541        C546   1.413       .  A
C542        C543   1.403   1_556  A
C542        H551   1.084       .  S
C543        C544   1.413       .  A
C543        S547   1.804       .  S
C544        C545   1.400   1_554  A
C545        C546   1.401       .  A
C545        H552   1.083       .  S
C546        S548   1.803       .  S
S547        H550   1.404       .  S
S548        H549   1.407       .  S
C553        C554   1.404       .  A
C553        C558   1.410   1_554  A
C554        C555   1.397       .  A
C554        H563   1.083       .  S
C555        C556   1.412   1_554  A
C555        S559   1.807       .  S
C556        C557   1.404       .  A
C557        C558   1.404       .  A
C557        H564   1.083       .  S
C558        S560   1.805       .  S
S559        H562   1.398   1_554  S
S560        H561   1.407       .  S
C565        C566   1.401       .  A
C565        C570   1.412       .  A
C566        C567   1.402   1_556  A
C566        H575   1.083   1_556  S
C567        C568   1.413       .  A
C567        S571   1.802       .  S
C568        C569   1.403   1_554  A
C569        C570   1.401       .  A
C569        H576   1.082       .  S
C570        S572   1.803       .  S
S571        H574   1.406       .  S
S572        H573   1.406       .  S
C577        C578   1.406       .  A
C577        C582   1.413       .  A
C578        C579   1.387       .  A
C578        H587   1.084       .  S
C579        C580   1.415       .  A
C579        S583   1.807       .  S
C580        C581   1.409       .  A
C581        C582   1.406       .  A
C581        H588   1.084       .  S
C582        S584   1.800       .  S
S583        H586   1.408       .  S
S584        H585   1.407       .  S
C589        C590   1.405       .  A
C589        C594   1.413   1_554  A
C590        C591   1.399       .  A
C590        H599   1.082       .  S
C591        C592   1.408   1_554  A
C591        S595   1.808       .  S
C592        C593   1.400       .  A
C593        C594   1.393       .  A
C593        H600   1.084       .  S
C594        S596   1.799       .  S
S595        H598   1.406       .  S
S596        H597   1.399   1_556  S
C601        C602   1.399       .  A
C601        C606   1.410       .  A
C602        C603   1.396       .  A
C602        H611   1.084       .  S
C603        C604   1.417       .  A
C603        S607   1.803       .  S
C604        C605   1.405       .  A
C605        C606   1.400       .  A
C605        H612   1.082       .  S
C606        S608   1.802       .  S
S607        H610   1.406       .  S
S608        H609   1.405       .  S
C613        C614   1.408       .  A
C613        C618   1.421       .  A
C614        C615   1.398       .  A
C614        H623   1.084       .  S
C615        C616   1.409       .  A
C615        S619   1.801       .  S
C616        C617   1.402       .  A
C617        C618   1.406       .  A
C617        H624   1.084       .  S
C618        S620   1.799       .  S
S619        H622   1.407       .  S
S620        H621   1.408       .  S
C625        C626   1.409       .  A
C625        C630   1.413   1_556  A
C626        C627   1.410   1_556  A
C626        H635   1.081       .  S
C627        C628   1.407       .  A
C627        S631   1.799       .  S
C628        C629   1.398       .  A
C629        C630   1.391       .  A
C629        H636   1.082       .  S
C630        S632   1.796       .  S
S631        H634   1.406   1_554  S
S632        H633   1.406   1_554  S
C637        C638   1.399       .  A
C637        C642   1.408       .  A
C638        C639   1.404   1_556  A
C638        H647   1.081       .  S
C639        C640   1.420       .  A
C639        S643   1.800       .  S
C640        C641   1.406   1_554  A
C641        C642   1.397       .  A
C641        H648   1.084       .  S
C642        S644   1.800       .  S
S643        H646   1.407       .  S
S644        H645   1.407       .  S
C649        C650   1.412       .  A
C649        C654   1.415       .  A
C650        C651   1.401       .  A
C650        H659   1.082       .  S
C651        C652   1.406       .  A
C651        S655   1.801       .  S
C652        C653   1.403       .  A
C653        C654   1.398       .  A
C653        H660   1.080       .  S
C654        S656   1.803       .  S
S655        H658   1.404       .  S
S656        H657   1.408       .  S
C661        C662   1.402       .  A
C661        C666   1.416       .  A
C662        C663   1.399       .  A
C662        H671   1.084       .  S
C663        C664   1.412       .  A
C663        S667   1.799       .  S
C664        C665   1.405       .  A
C665        C666   1.409       .  A
C665        H672   1.084       .  S
C666        S668   1.801       .  S
S667        H670   1.406       .  S
S668        H669   1.403       .  S
C673        C674   1.403       .  A
C673        C678   1.411       .  A
C674        C675   1.404   1_455  A
C674        H683   1.084       .  S
C675        C676   1.415       .  A
C675        S679   1.799       .  S
C676        C677   1.399       .  A
C677        C678   1.396   1_655  A
C677        H684   1.084       .  S
C678        S680   1.796       .  S
S679        H682   1.406       .  S
S680        H681   1.406       .  S
C685        C686   1.403       .  A
C685        C690   1.414       .  A
C686        C687   1.396   1_565  A
C686        H695   1.084       .  S
C687        C688   1.409       .  A
C687        S691   1.804       .  S
C688        C689   1.404       .  A
C689        C690   1.403   1_545  A
C689        H696   1.083       .  S
C690        S692   1.801       .  S
S691        H694   1.407       .  S
S692        H693   1.406       .  S
C697        C698   1.399       .  A
C697        C702   1.404       .  A
C698        C699   1.401       .  A
C698        H707   1.080       .  S
C699        C700   1.418       .  A
C699        S703   1.798       .  S
C700        C701   1.406       .  A
C701        C702   1.401       .  A
C701        H708   1.082       .  S
C702        S704   1.797       .  S
S703        H706   1.407       .  S
S704        H705   1.407       .  S
C709        C710   1.405       .  A
C709        C714   1.410       .  A
C710        C711   1.402   1_655  A
C710        H719   1.084       .  S
C711        C712   1.411       .  A
C711        S715   1.800       .  S
C712        C713   1.406       .  A
C713        C714   1.400   1_455  A
C713        H720   1.084       .  S
C714        S716   1.803       .  S
S715        H718   1.406       .  S
S716        H717   1.405       .  S
C721        C722   1.397   1_556  A
C721        C726   1.413       .  A
C722        C723   1.394       .  A
C722        H731   1.085       .  S
C723        C724   1.414       .  A
C723        S727   1.791       .  S
C724        C725   1.405       .  A
C725        C726   1.406   1_554  A
C725        H732   1.083       .  S
C726        S728   1.802       .  S
S727        H730   1.405       .  S
S728        H729   1.405       .  S
C733        C734   1.402       .  A
C733        C738   1.415       .  A
C734        C735   1.396   1_545  A
C734        H743   1.084       .  S
C735        C736   1.409       .  A
C735        S739   1.798       .  S
C736        C737   1.403       .  A
C737        C738   1.402   1_565  A
C737        H744   1.084       .  S
C738        S740   1.801       .  S
S739        H742   1.406       .  S
S740        H741   1.404       .  S
C745        C746   1.399   1_556  A
C745        C750   1.414       .  A
C746        C747   1.393       .  A
C746        H755   1.084       .  S
C747        C748   1.414       .  A
C747        S751   1.795       .  S
C748        C749   1.400   1_554  A
C749        C750   1.400       .  A
C749        H756   1.079       .  S
C750        S752   1.805       .  S
S751        H754   1.407       .  S
S752        H753   1.407       .  S
C757        C758   1.405       .  A
C757        C762   1.411   1_554  A
C758        C759   1.406       .  A
C758        H767   1.082       .  S
C759        C760   1.412   1_554  A
C759        S763   1.802       .  S
C760        C761   1.406       .  A
C761        C762   1.404       .  A
C761        H768   1.084       .  S
C762        S764   1.803       .  S
S763        H766   1.405   1_554  S
S764        H765   1.406   1_556  S
C769        C770   1.397       .  A
C769        C774   1.411       .  A
C770        C771   1.394       .  A
C770        H779   1.084       .  S
C771        C772   1.410       .  A
C771        S775   1.802       .  S
C772        C773   1.403       .  A
C773        C774   1.403       .  A
C773        H780   1.084       .  S
C774        S776   1.803       .  S
S775        H778   1.405       .  S
S776        H777   1.406       .  S
C781        C782   1.406       .  A
C781        C786   1.413       .  A
C782        C783   1.403       .  A
C782        H791   1.084       .  S
C783        C784   1.412       .  A
C783        S787   1.801       .  S
C784        C785   1.404       .  A
C785        C786   1.402       .  A
C785        H792   1.084       .  S
C786        S788   1.801       .  S
S787        H790   1.405       .  S
S788        H789   1.406       .  S
C793        C794   1.403       .  A
C793        C798   1.410   1_556  A
C794        C795   1.404       .  A
C794        H803   1.082       .  S
C795        C796   1.407   1_556  A
C795        S799   1.801       .  S
C796        C797   1.403       .  A
C797        C798   1.402       .  A
C797        H804   1.084       .  S
C798        S800   1.797       .  S
S799        H802   1.407       .  S
S800        H801   1.405   1_554  S
C805        C806   1.400       .  A
C805        C810   1.410       .  A
C806        C807   1.399       .  A
C806        H815   1.084       .  S
C807        C808   1.413       .  A
C807        S811   1.802       .  S
C808        C809   1.403       .  A
C809        C810   1.407       .  A
C809        H816   1.083       .  S
C810        S812   1.804       .  S
S811        H814   1.407       .  S
S812        H813   1.407       .  S
C817        C818   1.403       .  A
C817        C822   1.408       .  A
C818        C819   1.411       .  A
C818        H827   1.080       .  S
C819        C820   1.419       .  A
C819        S823   1.806       .  S
C820        C821   1.406       .  A
C821        C822   1.396       .  A
C821        H828   1.084       .  S
C822        S824   1.798       .  S
S823        H826   1.407       .  S
S824        H825   1.407       .  S
C829        C830   1.404       .  A
C829        C834   1.413       .  A
C830        C831   1.411       .  A
C830        H839   1.083       .  S
C831        C832   1.416       .  A
C831        S835   1.807       .  S
C832        C833   1.401       .  A
C833        C834   1.395       .  A
C833        H840   1.084       .  S
C834        S836   1.806       .  S
S835        H838   1.407       .  S
S836        H837   1.407       .  S
C841        C842   1.404       .  A
C841        C846   1.409       .  A
C842        C843   1.410   1_554  A
C842        H851   1.082       .  S
C843        C844   1.418       .  A
C843        S847   1.799       .  S
C844        C845   1.406   1_556  A
C845        C846   1.398       .  A
C845        H852   1.084       .  S
C846        S848   1.803       .  S
S847        H850   1.407       .  S
S848        H849   1.407       .  S
C853        C854   1.406       .  A
C853        C858   1.412   1_554  A
C854        C855   1.400       .  A
C854        H863   1.084       .  S
C855        C856   1.407   1_554  A
C855        S859   1.799       .  S
C856        C857   1.399       .  A
C857        C858   1.396       .  A
C857        H864   1.081       .  S
C858        S860   1.802       .  S
S859        H862   1.406   1_554  S
S860        H861   1.407       .  S
C865        C866   1.403       .  A
C865        C870   1.413       .  A
C866        C867   1.406       .  A
C866        H875   1.084       .  S
C867        C868   1.416       .  A
C867        S871   1.803       .  S
C868        C869   1.395       .  A
C869        C870   1.395       .  A
C869        H876   1.084       .  S
C870        S872   1.801       .  S
S871        H874   1.400       .  S
S872        H873   1.406       .  S
C877        C878   1.409       .  A
C877        C882   1.420       .  A
C878        C879   1.408       .  A
C878        H887   1.083       .  S
C879        C880   1.415       .  A
C879        S883   1.802       .  S
C880        C881   1.398       .  A
C881        C882   1.399       .  A
C881        H888   1.082       .  S
C882        S884   1.809       .  S
S883        H886   1.402       .  S
S884        H885   1.406       .  S
C889        C890   1.407       .  A
C889        C894   1.413       .  A
C890        C891   1.398       .  A
C890        H899   1.084       .  S
C891        C892   1.412       .  A
C891        S895   1.803       .  S
C892        C893   1.405       .  A
C893        C894   1.399       .  A
C893        H900   1.084       .  S
C894        S896   1.798       .  S
S895        H898   1.407       .  S
S896        H897   1.405       .  S
C901        C902   1.403       .  A
C901        C906   1.414       .  A
C902        C903   1.399       .  A
C902        H911   1.082       .  S
C903        C904   1.413       .  A
C903        S907   1.803       .  S
C904        C905   1.404       .  A
C905        C906   1.400       .  A
C905        H912   1.084       .  S
C906        S908   1.805       .  S
S907        H910   1.405       .  S
S908        H909   1.408       .  S
C913        C914   1.403       .  A
C913        C918   1.411       .  A
C914        C915   1.401       .  A
C914        H923   1.084       .  S
C915        C916   1.409       .  A
C915        S919   1.793       .  S
C916        C917   1.402       .  A
C917        C918   1.402       .  A
C917        H924   1.079       .  S
C918        S920   1.803       .  S
S919        H922   1.406       .  S
S920        H921   1.404       .  S
C925        C926   1.401       .  A
C925        C930   1.411       .  A
C926        C927   1.403       .  A
C926        H935   1.083       .  S
C927        C928   1.422       .  A
C927        S931   1.810       .  S
C928        C929   1.408       .  A
C929        C930   1.400       .  A
C929        H936   1.084       .  S
C930        S932   1.803       .  S
S931        H934   1.407       .  S
S932        H933   1.407       .  S
C937        C938   1.403       .  A
C937        C942   1.409       .  A
C938        C939   1.399       .  A
C938        H947   1.080       .  S
C939        C940   1.417       .  A
C939        S943   1.800       .  S
C940        C941   1.403       .  A
C941        C942   1.396       .  A
C941        H948   1.074       .  S
C942        S944   1.795       .  S
S943        H946   1.407       .  S
S944        H945   1.407       .  S
C949        C950   1.407       .  A
C949        C954   1.415       .  A
C950        C951   1.398       .  A
C950        H959   1.082       .  S
C951        C952   1.405       .  A
C951        S955   1.806       .  S
C952        C953   1.400       .  A
C953        C954   1.400       .  A
C953        H960   1.081       .  S
C954        S956   1.799       .  S
S955        H958   1.406       .  S
S956        H957   1.407       .  S
C961        C962   1.401       .  A
C961        C966   1.414       .  A
C962        C963   1.394       .  A
C962        H971   1.079       .  S
C963        C964   1.414       .  A
C963        S967   1.812       .  S
C964        C965   1.403       .  A
C965        C966   1.400       .  A
C965        H972   1.083       .  S
C966        S968   1.809       .  S
S967        H970   1.406       .  S
S968        H969   1.407       .  S
C973        C974   1.395       .  A
C973        C978   1.406       .  A
C974        C975   1.392       .  A
C974        H983   1.082       .  S
C975        C976   1.424       .  A
C975        S979   1.815       .  S
C976        C977   1.412       .  A
C977        C978   1.401       .  A
C977        H984   1.083       .  S
C978        S980   1.805       .  S
S979        H982   1.407       .  S
S980        H981   1.404       .  S
C985        C986   1.404       .  A
C985        C990   1.411       .  A
C986        C987   1.403       .  A
C986        H995   1.078       .  S
C987        C988   1.408       .  A
C987        S991   1.805       .  S
C988        C989   1.403       .  A
C989        C990   1.401       .  A
C989        H996   1.084       .  S
C990        S992   1.794       .  S
S991        H994   1.404       .  S
S992        H993   1.406       .  S
C997        C998   1.403       .  A
C997       C1002   1.412       .  A
C998        C999   1.401       .  A
C998       H1007   1.083       .  S
C999       C1000   1.418       .  A
C999       S1003   1.809       .  S
C1000      C1001   1.405       .  A
C1001      C1002   1.396       .  A
C1001      H1008   1.084       .  S
C1002      S1004   1.800       .  S
S1003      H1006   1.407       .  S
S1004      H1005   1.405       .  S
C1009      C1010   1.401       .  A
C1009      C1014   1.408       .  A
C1010      C1011   1.400       .  A
C1010      H1019   1.081       .  S
C1011      C1012   1.410       .  A
C1011      S1015   1.796       .  S
C1012      C1013   1.400       .  A
C1013      C1014   1.395       .  A
C1013      H1020   1.080       .  S
C1014      S1016   1.799       .  S
S1015      H1018   1.407       .  S
S1016      H1017   1.406       .  S
C1021      C1022   1.404       .  A
C1021      C1026   1.419       .  A
C1022      C1023   1.407       .  A
C1022      H1031   1.083       .  S
C1023      C1024   1.420       .  A
C1023      S1027   1.801       .  S
C1024      C1025   1.400       .  A
C1025      C1026   1.386       .  A
C1025      H1032   1.084       .  S
C1026      S1028   1.808       .  S
S1027      H1030   1.407       .  S
S1028      H1029   1.407       .  S
C1033      C1034   1.402       .  A
C1033      C1038   1.411       .  A
C1034      C1035   1.400       .  A
C1034      H1043   1.085       .  S
C1035      C1036   1.412       .  A
C1035      S1039   1.800       .  S
C1036      C1037   1.405       .  A
C1037      C1038   1.404       .  A
C1037      H1044   1.084       .  S
C1038      S1040   1.801       .  S
S1039      H1042   1.406       .  S
S1040      H1041   1.406       .  S
C1045      C1046   1.406       .  A
C1045      C1050   1.416       .  A
C1046      C1047   1.399       .  A
C1046      H1055   1.084       .  S
C1047      C1048   1.414       .  A
C1047      S1051   1.805       .  S
C1048      C1049   1.406       .  A
C1049      C1050   1.408       .  A
C1049      H1056   1.083       .  S
C1050      S1052   1.808       .  S
S1051      H1054   1.408       .  S
S1052      H1053   1.407       .  S
C1057      C1058   1.403       .  A
C1057      C1062   1.414       .  A
C1058      C1059   1.400       .  A
C1058      H1067   1.082       .  S
C1059      C1060   1.411       .  A
C1059      S1063   1.801       .  S
C1060      C1061   1.404       .  A
C1061      C1062   1.405       .  A
C1061      H1068   1.084       .  S
C1062      S1064   1.801       .  S
S1063      H1066   1.403       .  S
S1064      H1065   1.400       .  S
C1069      C1070   1.404       .  A
C1069      C1074   1.418       .  A
C1070      C1071   1.395       .  A
C1070      H1079   1.080       .  S
C1071      C1072   1.409       .  A
C1071      S1075   1.803       .  S
C1072      C1073   1.401       .  A
C1073      C1074   1.403       .  A
C1073      H1080   1.083       .  S
C1074      S1076   1.796       .  S
S1075      H1078   1.406       .  S
S1076      H1077   1.407       .  S
C1081      C1082   1.397       .  A
C1081      C1086   1.409       .  A
C1082      C1083   1.395       .  A
C1082      H1091   1.079       .  S
C1083      C1084   1.412       .  A
C1083      S1087   1.795       .  S
C1084      C1085   1.409       .  A
C1085      C1086   1.403       .  A
C1085      H1092   1.084       .  S
C1086      S1088   1.802       .  S
S1087      H1090   1.406       .  S
S1088      H1089   1.405       .  S
C1093      C1094   1.402       .  A
C1093      C1098   1.419       .  A
C1094      C1095   1.389       .  A
C1094      H1103   1.083       .  S
C1095      C1096   1.404       .  A
C1095      S1099   1.787       .  S
C1096      C1097   1.403       .  A
C1097      C1098   1.411       .  A
C1097      H1104   1.082       .  S
C1098      S1100   1.805       .  S
S1099      H1102   1.407       .  S
S1100      H1101   1.407       .  S
C1105      C1106   1.405       .  A
C1105      C1110   1.417       .  A
C1106      C1107   1.397       .  A
C1106      H1115   1.084       .  S
C1107      C1108   1.414       .  A
C1107      S1111   1.803       .  S
C1108      C1109   1.404       .  A
C1109      C1110   1.399       .  A
C1109      H1116   1.084       .  S
C1110      S1112   1.799       .  S
S1111      H1114   1.407       .  S
S1112      H1113   1.405       .  S
C1117      C1118   1.404       .  A
C1117      C1122   1.414       .  A
C1118      C1119   1.397       .  A
C1118      H1127   1.085       .  S
C1119      C1120   1.412       .  A
C1119      S1123   1.803       .  S
C1120      C1121   1.405       .  A
C1121      C1122   1.406       .  A
C1121      H1128   1.084       .  S
C1122      S1124   1.800       .  S
S1123      H1126   1.404       .  S
S1124      H1125   1.406       .  S
C1129      C1130   1.406       .  A
C1129      C1134   1.414       .  A
C1130      C1131   1.402       .  A
C1130      H1139   1.082       .  S
C1131      C1132   1.415       .  A
C1131      S1135   1.810       .  S
C1132      C1133   1.407       .  A
C1133      C1134   1.402       .  A
C1133      H1140   1.084       .  S
C1134      S1136   1.802       .  S
S1135      H1138   1.407       .  S
S1136      H1137   1.406       .  S
C1141      C1142   1.406       .  A
C1141      C1146   1.415       .  A
C1142      C1143   1.410   1_565  A
C1142      H1151   1.083       .  S
C1143      C1144   1.413       .  A
C1143      S1147   1.806       .  S
C1144      C1145   1.402       .  A
C1145      C1146   1.394   1_545  A
C1145      H1152   1.085       .  S
C1146      S1148   1.805       .  S
S1147      H1150   1.407       .  S
S1148      H1149   1.401       .  S
C1153      C1154   1.398       .  A
C1153      C1158   1.407       .  A
C1154      C1155   1.402       .  A
C1154      H1163   1.080       .  S
C1155      C1156   1.414       .  A
C1155      S1159   1.805       .  S
C1156      C1157   1.406       .  A
C1157      C1158   1.405       .  A
C1157      H1164   1.082       .  S
C1158      S1160   1.802       .  S
S1159      H1162   1.405       .  S
S1160      H1161   1.407       .  S
C1165      C1166   1.408       .  A
C1165      C1170   1.417       .  A
C1166      C1167   1.403       .  A
C1166      H1175   1.082       .  S
C1167      C1168   1.411       .  A
C1167      S1171   1.808       .  S
C1168      C1169   1.403       .  A
C1169      C1170   1.397       .  A
C1169      H1176   1.084       .  S
C1170      S1172   1.803       .  S
S1171      H1174   1.407       .  S
S1172      H1173   1.408       .  S
C1177      C1178   1.399       .  A
C1177      C1182   1.411       .  A
C1178      C1179   1.397   1_455  A
C1178      H1187   1.085       .  S
C1179      C1180   1.420       .  A
C1179      S1183   1.806       .  S
C1180      C1181   1.405       .  A
C1181      C1182   1.403   1_655  A
C1181      H1188   1.083       .  S
C1182      S1184   1.803       .  S
S1183      H1186   1.400       .  S
S1184      H1185   1.406       .  S
C1189      C1190   1.401       .  A
C1189      C1194   1.415       .  A
C1190      C1191   1.398       .  A
C1190      H1199   1.083       .  S
C1191      C1192   1.411       .  A
C1191      S1195   1.802       .  S
C1192      C1193   1.400       .  A
C1193      C1194   1.400       .  A
C1193      H1200   1.083       .  S
C1194      S1196   1.807       .  S
S1195      H1198   1.406       .  S
S1196      H1197   1.406       .  S
C1201      C1202   1.402       .  A
C1201      C1206   1.411       .  A
C1202      C1203   1.405       .  A
C1202      H1211   1.081       .  S
C1203      C1204   1.413       .  A
C1203      S1207   1.802       .  S
C1204      C1205   1.401       .  A
C1205      C1206   1.400       .  A
C1205      H1212   1.084       .  S
C1206      S1208   1.798       .  S
S1207      H1210   1.406       .  S
S1208      H1209   1.407       .  S
C1213      C1214   1.400       .  A
C1213      C1218   1.409       .  A
C1214      C1215   1.401       .  A
C1214      H1223   1.084       .  S
C1215      C1216   1.417       .  A
C1215      S1219   1.803       .  S
C1216      C1217   1.405       .  A
C1217      C1218   1.399       .  A
C1217      H1224   1.084       .  S
C1218      S1220   1.804       .  S
S1219      H1222   1.406       .  S
S1220      H1221   1.406       .  S
C1225      C1226   1.404       .  A
C1225      C1230   1.418       .  A
C1226      C1227   1.396   1_545  A
C1226      H1235   1.084       .  S
C1227      C1228   1.413       .  A
C1227      S1231   1.802       .  S
C1228      C1229   1.405       .  A
C1229      C1230   1.409   1_565  A
C1229      H1236   1.084       .  S
C1230      S1232   1.799       .  S
S1231      H1234   1.405       .  S
S1232      H1233   1.407       .  S
C1237      C1238   1.402       .  A
C1237      C1242   1.415       .  A
C1238      C1239   1.396       .  A
C1238      H1247   1.085       .  S
C1239      C1240   1.412       .  A
C1239      S1243   1.797       .  S
C1240      C1241   1.408       .  A
C1241      C1242   1.413       .  A
C1241      H1248   1.083       .  S
C1242      S1244   1.798       .  S
S1243      H1246   1.403       .  S
S1244      H1245   1.405       .  S
C1249      C1250   1.408       .  A
C1249      C1254   1.415       .  A
C1250      C1251   1.392       .  A
C1250      H1259   1.081       .  S
C1251      C1252   1.404       .  A
C1251      S1255   1.803       .  S
C1252      C1253   1.401       .  A
C1253      C1254   1.401       .  A
C1253      H1260   1.082       .  S
C1254      S1256   1.798       .  S
S1255      H1258   1.407       .  S
S1256      H1257   1.408       .  S
C1261      C1262   1.403       .  A
C1261      C1266   1.411       .  A
C1262      C1263   1.398       .  A
C1262      H1271   1.084       .  S
C1263      C1264   1.417       .  A
C1263      S1267   1.801       .  S
C1264      C1265   1.406       .  A
C1265      C1266   1.397       .  A
C1265      H1272   1.083       .  S
C1266      S1268   1.798       .  S
S1267      H1270   1.403       .  S
S1268      H1269   1.406       .  S
C1273      C1274   1.401       .  A
C1273      C1278   1.413       .  A
C1274      C1275   1.400   1_655  A
C1274      H1283   1.084       .  S
C1275      C1276   1.412       .  A
C1275      S1279   1.802       .  S
C1276      C1277   1.399       .  A
C1277      C1278   1.398   1_455  A
C1277      H1284   1.084       .  S
C1278      S1280   1.802       .  S
S1279      H1282   1.406       .  S
S1280      H1281   1.407       .  S
C1285      C1286   1.398       .  A
C1285      C1290   1.414       .  A
C1286      C1287   1.393       .  A
C1286      H1295   1.078       .  S
C1287      C1288   1.410       .  A
C1287      S1291   1.804       .  S
C1288      C1289   1.407       .  A
C1289      C1290   1.412       .  A
C1289      H1296   1.083       .  S
C1290      S1292   1.798       .  S
S1291      H1294   1.406       .  S
S1292      H1293   1.406       .  S
C1297      C1298   1.405       .  A
C1297      C1302   1.414       .  A
C1298      C1299   1.404       .  A
C1298      H1307   1.084       .  S
C1299      C1300   1.412       .  A
C1299      S1303   1.796       .  S
C1300      C1301   1.403       .  A
C1301      C1302   1.400       .  A
C1301      H1308   1.084       .  S
C1302      S1304   1.805       .  S
S1303      H1306   1.405       .  S
S1304      H1305   1.408       .  S
C1309      C1310   1.401       .  A
C1309      C1314   1.412       .  A
C1310      C1311   1.395       .  A
C1310      H1319   1.082       .  S
C1311      C1312   1.409       .  A
C1311      S1315   1.799       .  S
C1312      C1313   1.406       .  A
C1313      C1314   1.407       .  A
C1313      H1320   1.084       .  S
C1314      S1316   1.802       .  S
S1315      H1318   1.405       .  S
S1316      H1317   1.404       .  S
C1321      C1322   1.409       .  A
C1321      C1326   1.420       .  A
C1322      C1323   1.400       .  A
C1322      H1331   1.084       .  S
C1323      C1324   1.409       .  A
C1323      S1327   1.799       .  S
C1324      C1325   1.402       .  A
C1325      C1326   1.400       .  A
C1325      H1332   1.083       .  S
C1326      S1328   1.811       .  S
S1327      H1330   1.406       .  S
S1328      H1329   1.407       .  S
C1333      C1334   1.401       .  A
C1333      C1338   1.411       .  A
C1334      C1335   1.396       .  A
C1334      H1343   1.085       .  S
C1335      C1336   1.414       .  A
C1335      S1339   1.807       .  S
C1336      C1337   1.406       .  A
C1337      C1338   1.408       .  A
C1337      H1344   1.083       .  S
C1338      S1340   1.807       .  S
S1339      H1342   1.398       .  S
S1340      H1341   1.407       .  S
C1345      C1346   1.405       .  A
C1345      C1350   1.413       .  A
C1346      C1347   1.406       .  A
C1346      H1355   1.083       .  S
C1347      C1348   1.407       .  A
C1347      S1351   1.799       .  S
C1348      C1349   1.402       .  A
C1349      C1350   1.401       .  A
C1349      H1356   1.084       .  S
C1350      S1352   1.800       .  S
S1351      H1354   1.407       .  S
S1352      H1353   1.407       .  S
C1357      C1358   1.399       .  A
C1357      C1362   1.406       .  A
C1358      C1359   1.394       .  A
C1358      H1367   1.082       .  S
C1359      C1360   1.413       .  A
C1359      S1363   1.798       .  S
C1360      C1361   1.406       .  A
C1361      C1362   1.397       .  A
C1361      H1368   1.080       .  S
C1362      S1364   1.799       .  S
S1363      H1366   1.408       .  S
S1364      H1365   1.407       .  S
C1369      C1370   1.404       .  A
C1369      C1374   1.412       .  A
C1370      C1371   1.402       .  A
C1370      H1379   1.083       .  S
C1371      C1372   1.414       .  A
C1371      S1375   1.799       .  S
C1372      C1373   1.406       .  A
C1373      C1374   1.401       .  A
C1373      H1380   1.082       .  S
C1374      S1376   1.805       .  S
S1375      H1378   1.406       .  S
S1376      H1377   1.402       .  S
C1381      C1382   1.403       .  A
C1381      C1386   1.416       .  A
C1382      C1383   1.390       .  A
C1382      H1391   1.081       .  S
C1383      C1384   1.425       .  A
C1383      S1387   1.819       .  S
C1384      C1385   1.410       .  A
C1385      C1386   1.409       .  A
C1385      H1392   1.084       .  S
C1386      S1388   1.801       .  S
S1387      H1390   1.406       .  S
S1388      H1389   1.407       .  S
