geometry optimzed in LAMMPS
_audit_creation_date              2020-12-01 
_audit_creation_method            'lammps2cif' 
_symmetry_space_group_name_H-M    'P1' 
_symmetry_Int_Tables_number       1 
_symmetry_cell_setting            triclinic 
loop_ 
_symmetry_equiv_pos_as_xyz 
  x,y,z 
_cell_length_a                    40.26814458 
_cell_length_b                    40.279433738062394 
_cell_length_c                    32.061096006448665 
_cell_angle_alpha                 89.94172743121827 
_cell_angle_beta                  90.086015749525 
_cell_angle_gamma                 119.6100190316517 
loop_ 
_atom_site_label 
_atom_site_type_symbol 
_atom_site_fract_x 
_atom_site_fract_y 
_atom_site_fract_z 
_atom_site_charge 
O1          O  0.29390680  0.18650991  0.29233609    -0.83600
C2          C  0.37769453  0.20462254  0.43232457     0.95800
O3          O  0.36056514  0.17941685  0.40480688    -0.72700
O4          O  0.30985230  0.14197889  0.34675340    -0.76300
Al5        Al  0.35661894  0.18991937  0.34789735     1.49000
C6          C  0.27682683  0.13161059  0.36066345     0.91000
O7          O  0.27443675  0.22117679  0.39506465    -0.82500
O8          O  0.34172267  0.28985894  0.36677920    -0.76100
Al9        Al  0.28896554  0.20495713  0.34512728     1.90100
O10         O  0.32553905  0.24201312  0.43433444    -0.75100
O11         O  0.40464511  0.28309811  0.35393600    -0.75000
O12         O  0.38782785  0.23929123  0.42523502    -0.80600
O13         O  0.40859312  0.23111076  0.34653834    -0.78800
O14         O  0.33612315  0.21853658  0.36155002    -1.15000
O15         O  0.35322703  0.19776831  0.28966171    -0.74200
C16         C  0.32226357  0.19022850  0.27161916     0.96500
C17         C  0.29053414  0.23077893  0.43029488     0.92900
Al18       Al  0.36276643  0.26031144  0.39227574     1.55600
O19         O  0.26690554  0.15583228  0.36957794    -0.78800
C20         C  0.42431763  0.26721103  0.34616343     0.97100
C21         C  0.32000963  0.28347668  0.33556393     0.92000
O22         O  0.30470516  0.25146275  0.31805425    -0.84100
O23         O  0.20181406  0.27669811  0.71610970    -0.83600
C24         C  0.21995569  0.36022982  0.57593484     0.95800
O25         O  0.19436621  0.34268279  0.60298356    -0.72700
O26         O  0.15671004  0.29209724  0.66143849    -0.76300
Al27       Al  0.20450576  0.33899879  0.66008325     1.49000
C28         C  0.14638517  0.25897358  0.64799010     0.91000
O29         O  0.23626981  0.25751186  0.61262800    -0.82500
O30         O  0.30552964  0.32569081  0.64257756    -0.76100
Al31       Al  0.22007819  0.27168508  0.66294612     1.90100
O32         O  0.25875878  0.30938493  0.57438397    -0.75100
O33         O  0.29757908  0.38784457  0.65570715    -0.75000
O34         O  0.25463773  0.37082403  0.58367309    -0.80600
O35         O  0.24521371  0.39128507  0.66143356    -0.78800
O36         O  0.23360529  0.31889624  0.64682479    -1.15000
O37         O  0.21215967  0.33577132  0.71832804    -0.74200
C38         C  0.20507767  0.30504426  0.73661326     0.96500
C39         C  0.24691030  0.27421351  0.57779339     0.92900
Al40       Al  0.27580357  0.34619258  0.61685496     1.55600
O41         O  0.17074290  0.24935785  0.63865413    -0.78800
C42         C  0.28132190  0.40733388  0.66255496     0.97100
C43         C  0.29889721  0.30336042  0.67315800     0.92000
O44         O  0.26655624  0.28714584  0.68990591    -0.84100
O45         O  0.41563038  0.20379833  0.62535633    -0.83600
C46         C  0.35010964  0.12087462  0.76555823     0.95800
O47         O  0.34221379  0.13855503  0.73824886    -0.72700
O48         O  0.35577358  0.18931375  0.67967195    -0.76300
Al49       Al  0.35614638  0.14195400  0.68105976     1.49000
C50         C  0.37860194  0.22215302  0.69356454     0.91000
O51         O  0.46909855  0.22188407  0.72856280    -0.82500
O52         O  0.47007179  0.15400802  0.69970508    -0.76100
Al53       Al  0.43872746  0.20818955  0.67837439     1.90100
O54         O  0.43891490  0.17060054  0.76743737    -0.75100
O55         O  0.39983729  0.09206455  0.68607820    -0.75000
O56         O  0.37368226  0.10945554  0.75781727    -0.80600
O57         O  0.34443471  0.08946583  0.67965851    -0.78800
O58         O  0.40496031  0.16131687  0.69460633    -1.15000
O59         O  0.36717009  0.14501491  0.62279611    -0.74200
C60         C  0.39093307  0.17560862  0.60465317     0.96500
C61         C  0.46264777  0.20553130  0.76366319     0.92900
Al62       Al  0.41954775  0.13371502  0.72496322     1.55600
O63         O  0.41238759  0.23127960  0.70275401    -0.78800
C64         C  0.36435213  0.07305525  0.67856507     0.97100
C65         C  0.48555521  0.17611352  0.66888192     0.92000
O66         O  0.46879145  0.19152247  0.65132666    -0.84100
O67         O  0.09702492  0.29584385  0.04941215    -0.83600
C68         C  0.16317935  0.27751166  0.90935925     0.95800
O69         O  0.17102198  0.30286392  0.93672236    -0.72700
O70         O  0.15734921  0.34046443  0.99460993    -0.76300
Al71       Al  0.15665992  0.29258517  0.99384707     1.49000
C72         C  0.13457979  0.35096186  0.98098744     0.91000
O73         O  0.04370941  0.26135043  0.94594475    -0.82500
O74         O  0.04291650  0.19258497  0.97439443    -0.76100
Al75       Al  0.07403952  0.27749818  0.99628263     1.90100
O76         O  0.07438916  0.24047563  0.90712955    -0.75100
O77         O  0.11241701  0.19928225  0.98819320    -0.75000
O78         O  0.13920832  0.24290052  0.91682075    -0.80600
O79         O  0.16778015  0.25124239  0.99582266    -0.78800
O80         O  0.10786400  0.26395281  0.98012069    -1.15000
O81         O  0.14563799  0.28523036  0.05223178    -0.74200
C82         C  0.12213325  0.29279285  0.07020346     0.96500
C83         C  0.05032448  0.25152407  0.91085861     0.92900
Al84       Al  0.09329338  0.22212297  0.94944519     1.55600
O85         O  0.10062520  0.32685073  0.97213427    -0.78800
C86         C  0.14771702  0.21513358  0.99652494     0.97100
C87         C  0.02737996  0.19884948  0.00547159     0.92000
O88         O  0.04363315  0.23083125  0.02308072    -0.84100
O89         O  0.31174556  0.08167348  0.95883077    -0.83600
C90         C  0.29322870  0.14626359  0.09987814     0.95800
O91         O  0.31855915  0.15436198  0.07245272    -0.72700
O92         O  0.35628493  0.14150900  0.01395997    -0.76300
Al93       Al  0.30818609  0.14044625  0.01540147     1.49000
C94         C  0.36703303  0.11879614  0.02711188     0.91000
O95         O  0.27795897  0.02720692  0.06185084    -0.82500
O96         O  0.20863272  0.02639436  0.03360189    -0.76100
Al97       Al  0.29372207  0.05807010  0.01180018     1.90100
O98         O  0.25640513  0.05695038  0.10117479    -0.75100
O99         O  0.21483925  0.09592564  0.02149177    -0.75000
O100        O  0.25870505  0.12172408  0.09276061    -0.80600
O101        O  0.26675068  0.15135208  0.01437386    -0.78800
O102        O  0.27980621  0.09146593  0.02862628    -1.15000
O103        O  0.30060573  0.12997343  0.95700158    -0.74200
C104        C  0.30824345  0.10675670  0.93851499     0.96500
C105        C  0.26798805  0.03334598  0.09709472     0.92900
Al106      Al  0.23795760  0.07633025  0.05942052     1.55600
O107        O  0.34308268  0.08480616  0.03591487    -0.78800
C108        C  0.23064677  0.13138806  0.01410760     0.97100
C109        C  0.21503349  0.01111030  0.00238702     0.92000
O110        O  0.24708692  0.02746729  0.98494491    -0.84100
O111        O  0.22064715  0.39974921  0.38315989    -0.83600
C112        C  0.13688677  0.33637118  0.24286323     0.95800
O113        O  0.15450965  0.32802169  0.26980517    -0.72700
O114        O  0.20533664  0.34029136  0.32798499    -0.76300
Al115      Al  0.15829393  0.34138506  0.32709973     1.49000
C116        C  0.23831802  0.36298067  0.31435647     0.91000
O117        O  0.23926437  0.45439674  0.28064000    -0.82500
O118        O  0.17164097  0.45588981  0.31077443    -0.76100
Al119      Al  0.22528850  0.42353718  0.33056998     1.90100
O120        O  0.18754131  0.42514661  0.24221309    -0.75100
O121        O  0.10919768  0.38604073  0.32374988    -0.75000
O122        O  0.12601152  0.36029814  0.25109141    -0.80600
O123        O  0.10613144  0.33037241  0.32885614    -0.78800
O124        O  0.17816247  0.39038647  0.31431884    -1.15000
O125        O  0.16156755  0.35176143  0.38539456    -0.74200
C126        C  0.19233156  0.37498279  0.40362902     0.96500
C127        C  0.22270712  0.44812662  0.24563917     0.92900
Al128      Al  0.15079092  0.40574908  0.28469622     1.55600
O129        O  0.24776027  0.39689436  0.30547814    -0.78800
C130        C  0.08995286  0.35046875  0.33054261     0.97100
C131        C  0.19397439  0.47092290  0.34152871     0.92000
O132        O  0.20935357  0.45384972  0.35843570    -0.84100
C133        C  0.24625083  0.47127702  0.13242419    -0.15100
C134        C  0.26676906  0.01122920  0.13398100     0.07000
C135        C  0.27863454  0.02970041  0.17274048    -0.15100
C136        C  0.26749415  0.50860617  0.20972186    -0.15100
C137        C  0.24345453  0.46896830  0.20818410     0.07000
C138        C  0.23418324  0.45026477  0.16939795    -0.15100
H139        H  0.23642684  0.45661867  0.10284391     0.11000
H140        H  0.29427204  0.06060757  0.17440255     0.11000
H141        H  0.27466628  0.52350576  0.23932539     0.11000
H142        H  0.21560295  0.41960302  0.16772086     0.11000
C143        C  0.15090895  0.29703712  0.14130686    -0.15100
C144        C  0.12394971  0.29966950  0.11568420     0.07000
C145        C  0.09900083  0.31069461  0.13357547    -0.15100
C146        C  0.10211041  0.32074129  0.17545498    -0.15100
C147        C  0.12997184  0.31967416  0.20071885     0.07000
C148        C  0.15378228  0.30682491  0.18365004    -0.15100
H149        H  0.17036857  0.28846272  0.12843175     0.11000
H150        H  0.07766477  0.31277791  0.11490787     0.11000
H151        H  0.08333268  0.33042828  0.18780814     0.11000
H152        H  0.17576007  0.30609298  0.20249822     0.11000
C153        C  0.17880110  0.41495207  0.95249697    -0.15100
C154        C  0.14785896  0.39195213  0.97822649     0.07000
C155        C  0.13464166  0.40902988  0.00696716    -0.15100
C156        C  0.15441861  0.44873531  0.01250523    -0.15100
C157        C  0.18736034  0.47173059  0.98893952     0.07000
C158        C  0.19800119  0.45453347  0.95729376    -0.15100
H159        H  0.18947605  0.40213001  0.93040661     0.11000
H160        H  0.11103721  0.39145865  0.02749893     0.11000
H161        H  0.14567122  0.46101172  0.03726186     0.11000
H162        H  0.22318110  0.47132027  0.93846617     0.11000
C163        C  0.14757416  0.15199515  0.00322669    -0.15100
C164        C  0.16723364  0.19227413  0.00355860     0.07000
C165        C  0.20724324  0.21146807  0.00697183    -0.15100
C166        C  0.22716624  0.19140414  0.00927107    -0.15100
C167        C  0.20792888  0.15126569  0.00871906     0.07000
C168        C  0.16772729  0.13165972  0.00616254    -0.15100
H169        H  0.11676410  0.13627334  0.00031360     0.11000
H170        H  0.22355759  0.24237072  0.00710306     0.11000
H171        H  0.25798664  0.20767031  0.01189997     0.11000
H172        H  0.15194917  0.10074581  0.00624810     0.11000
C173        C  0.47084590  0.18164191  0.05062556    -0.15100
C174        C  0.48788323  0.17119936  0.01861435     0.07000
C175        C  0.46467658  0.13863065  0.99458526    -0.15100
C176        C  0.42495178  0.11904035  0.00015193    -0.15100
C177        C  0.40807522  0.13210601  0.02934697     0.07000
C178        C  0.43126647  0.16268269  0.05541813    -0.15100
H179        H  0.48779354  0.20651201  0.06983844     0.11000
H180        H  0.47681801  0.13004693  0.96953493     0.11000
H181        H  0.40722231  0.09568333  0.97939392     0.11000
H182        H  0.41861369  0.17321507  0.07789411     0.11000
C183        C  0.02436857  0.24829116  0.79822295    -0.15100
C184        C  0.48452739  0.22620939  0.80059583     0.07000
C185        C  0.46645411  0.21880463  0.83964496    -0.15100
C186        C  0.48816686  0.23107286  0.87615980    -0.15100
C187        C  0.02810430  0.24973748  0.87386775     0.07000
C188        C  0.04609141  0.25953710  0.83474124    -0.15100
H189        H  0.03874363  0.25388484  0.76837852     0.11000
H190        H  0.43564925  0.20164595  0.84192286     0.11000
H191        H  0.47386276  0.22286181  0.90607304     0.11000
H192        H  0.07695672  0.27374274  0.83250858     0.11000
C193        C  0.33157526  0.08468646  0.83189369    -0.15100
C194        C  0.33338236  0.11443814  0.80760671     0.07000
C195        C  0.32394138  0.14047121  0.82575876    -0.15100
C196        C  0.31467865  0.13773539  0.86826798    -0.15100
C197        C  0.31447825  0.10873942  0.89291507     0.07000
C198        C  0.32207687  0.08175219  0.87390603    -0.15100
H199        H  0.33866606  0.06423972  0.81864334     0.11000
H200        H  0.32562733  0.16398096  0.80765891     0.11000
H201        H  0.30887223  0.15887126  0.88204990     0.11000
H202        H  0.32183050  0.05880031  0.89177910     0.11000
C203        C  0.19178257  0.26631552  0.80123973    -0.15100
C204        C  0.19916076  0.30076391  0.78221712     0.07000
C205        C  0.19899825  0.32953040  0.80686111    -0.15100
C206        C  0.18977502  0.32307950  0.84934616    -0.15100
C207        C  0.18031611  0.28770262  0.86750012     0.07000
C208        C  0.18228853  0.25981292  0.84327869    -0.15100
H209        H  0.19207567  0.24367161  0.78333919     0.11000
H210        H  0.20471230  0.35639439  0.79307198     0.11000
H211        H  0.18800123  0.34487061  0.86739572     0.11000
H212        H  0.17521083  0.23235767  0.85657136     0.11000
C213        C  0.08171240  0.23869799  0.62048404    -0.15100
C214        C  0.10542667  0.23116803  0.64585481     0.07000
C215        C  0.08909546  0.20057395  0.67417968    -0.15100
C216        C  0.04931989  0.17975307  0.67951483    -0.15100
C217        C  0.02550535  0.18899128  0.65601847     0.07000
C218        C  0.04215418  0.21737875  0.62492748    -0.15100
H219        H  0.09388943  0.26236038  0.59869368     0.11000
H220        H  0.10721261  0.19479651  0.69441873     0.11000
H221        H  0.03752246  0.15842012  0.70391913     0.11000
H222        H  0.02481378  0.22535443  0.60615350     0.11000
C223        C  0.28454731  0.47081253  0.66613499    -0.15100
C224        C  0.30371159  0.44962814  0.66800051     0.07000
C225        C  0.34382270  0.46965427  0.67159729    -0.15100
C226        C  0.36403075  0.00987247  0.67397017    -0.15100
C227        C  0.34456047  0.03085006  0.67214478     0.07000
C228        C  0.30457839  0.01062246  0.66795643    -0.15100
H229        H  0.25378862  0.45662686  0.66271426     0.11000
H230        H  0.35952876  0.45426806  0.67262510     0.11000
H231        H  0.39476971  0.02448955  0.67762837     0.11000
H232        H  0.28842003  0.02555099  0.66671771     0.11000
C233        C  0.31581390  0.26342947  0.71794793    -0.15100
C234        C  0.32665080  0.29146018  0.68658881     0.07000
C235        C  0.35961257  0.30113078  0.66302579    -0.15100
C236        C  0.37912775  0.28065834  0.66818626    -0.15100
C237        C  0.36558376  0.25015181  0.69653309     0.07000
C238        C  0.33470888  0.24251933  0.72232666    -0.15100
H239        H  0.29063621  0.25527424  0.73679214     0.11000
H240        H  0.36848983  0.32230309  0.63848170     0.11000
H241        H  0.40274738  0.28647653  0.64766185     0.11000
H242        H  0.32384819  0.21889522  0.74414570     0.11000
C243        C  0.23166276  0.39936576  0.46772802    -0.15100
C244        C  0.19675483  0.37328577  0.44909276     0.07000
C245        C  0.16763448  0.34537342  0.47397741    -0.15100
C246        C  0.17417596  0.34252338  0.51639491    -0.15100
C247        C  0.20995659  0.36736487  0.53413800     0.07000
C248        C  0.23823313  0.39630917  0.50968645    -0.15100
H249        H  0.25458498  0.42153564  0.44960136     0.11000
H250        H  0.14040159  0.32507933  0.46044147     0.11000
H251        H  0.15207401  0.31971960  0.53471865     0.11000
H252        H  0.26599325  0.41588000  0.52271784     0.11000
C253        C  0.48685588  0.33019159  0.34225159    -0.15100
C254        C  0.46651855  0.28996814  0.34029851     0.07000
C255        C  0.48737222  0.27062782  0.33649508    -0.15100
C256        C  0.02713419  0.29053241  0.33488177    -0.15100
C257        C  0.04771654  0.33064461  0.33646274     0.07000
C258        C  0.02711050  0.35037932  0.34000293    -0.15100
H259        H  0.47171297  0.34598116  0.34574468     0.11000
H260        H  0.47297496  0.23973731  0.33531394     0.11000
H261        H  0.04174644  0.27419296  0.33166754     0.11000
H262        H  0.04204396  0.38128152  0.34091964     0.11000
C263        C  0.31707918  0.34385067  0.34579291    -0.15100
C264        C  0.30766923  0.31095519  0.32222866     0.07000
C265        C  0.27971493  0.30003192  0.29070660    -0.15100
C266        C  0.25875074  0.31887593  0.28604906    -0.15100
C267        C  0.26623890  0.34978828  0.31173421     0.07000
C268        C  0.29658253  0.36331644  0.34034282    -0.15100
H269        H  0.33816855  0.35280053  0.37045595     0.11000
H270        H  0.27171581  0.27488067  0.27186732     0.11000
H271        H  0.23524714  0.30799586  0.26404241     0.11000
H272        H  0.30228607  0.38694284  0.36081074     0.11000
C273        C  0.25863781  0.06740124  0.38785491    -0.15100
C274        C  0.24941183  0.09068753  0.36390616     0.07000
C275        C  0.21708578  0.07395658  0.33794610    -0.15100
C276        C  0.19623501  0.03416942  0.33310041    -0.15100
C277        C  0.20717441  0.01078240  0.35482676     0.07000
C278        C  0.23728821  0.02781675  0.38400547    -0.15100
H279        H  0.28356903  0.07992614  0.40792861     0.11000
H280        H  0.20990076  0.09175689  0.31891791     0.11000
H281        H  0.17343799  0.02202286  0.31027451     0.11000
H282        H  0.24655650  0.01078953  0.40142415     0.11000
C283        C  0.34688762  0.18632917  0.20066218    -0.15100
C284        C  0.31749162  0.18408035  0.22614836     0.07000
C285        C  0.28184832  0.17390695  0.20816597    -0.15100
C286        C  0.27485448  0.16377836  0.16638893    -0.15100
C287        C  0.30341390  0.16395013  0.14139756     0.07000
C288        C  0.33991276  0.17646478  0.15838418    -0.15100
H289        H  0.37469939  0.19438901  0.21364884     0.11000
H290        H  0.25865952  0.17234108  0.22671902     0.11000
H291        H  0.24656452  0.15448333  0.15396696     0.11000
H292        H  0.36232412  0.17658563  0.13962855     0.11000
C293        C  0.27680627  0.22068380  0.50602680    -0.15100
C294        C  0.26963625  0.23190280  0.46708593     0.07000
C295        C  0.24856445  0.25099146  0.46495558    -0.15100
C296        C  0.23837085  0.26236409  0.50161417    -0.15100
C297        C  0.24812676  0.25369124  0.54062377     0.07000
C298        C  0.26556833  0.23104856  0.54268894    -0.15100
H299        H  0.29324905  0.20606297  0.50809308     0.11000
H300        H  0.24320935  0.26022802  0.43518337     0.11000
H301        H  0.22500526  0.27998069  0.49955729     0.11000
H302        H  0.27364922  0.22446821  0.57250429     0.11000
C303        C  0.36160910  0.15150591  0.53393641    -0.15100
C304        C  0.38992940  0.18006934  0.55902502     0.07000
C305        C  0.41692693  0.21463095  0.54045820    -0.15100
C306        C  0.41415563  0.22161023  0.49850074    -0.15100
C307        C  0.38467717  0.19402860  0.47394976     0.07000
C308        C  0.35910515  0.15840997  0.49152444    -0.15100
H309        H  0.34063820  0.12452304  0.54735042     0.11000
H310        H  0.43950611  0.23707469  0.55869820     0.11000
H311        H  0.43431539  0.24919087  0.48556908     0.11000
H312        H  0.33591802  0.13681480  0.47311386     0.11000
O313        O  0.29390681  0.68650985  0.29233609    -0.83600
C314        C  0.37769453  0.70462249  0.43232456     0.95800
O315        O  0.36056515  0.67941681  0.40480688    -0.72700
O316        O  0.30985231  0.64197884  0.34675341    -0.76300
Al317      Al  0.35661897  0.68991934  0.34789735     1.49000
C318        C  0.27682682  0.63161053  0.36066344     0.91000
O319        O  0.27443675  0.72117673  0.39506465    -0.82500
O320        O  0.34172264  0.78985888  0.36677921    -0.76100
Al321      Al  0.28896554  0.70495708  0.34512728     1.90100
O322        O  0.32553904  0.74201305  0.43433445    -0.75100
O323        O  0.40464518  0.78309818  0.35393602    -0.75000
O324        O  0.38782786  0.73929119  0.42523502    -0.80600
O325        O  0.40859316  0.73111082  0.34653834    -0.78800
O326        O  0.33612317  0.71853655  0.36155001    -1.15000
O327        O  0.35322705  0.69776827  0.28966172    -0.74200
C328        C  0.32226360  0.69022851  0.27161916     0.96500
C329        C  0.29053413  0.73077889  0.43029488     0.92900
Al330      Al  0.36276644  0.76031142  0.39227574     1.55600
O331        O  0.26690555  0.65583224  0.36957794    -0.78800
C332        C  0.42431769  0.76721110  0.34616343     0.97100
C333        C  0.32000957  0.78347660  0.33556396     0.92000
O334        O  0.30470512  0.75146269  0.31805425    -0.84100
O335        O  0.20181408  0.77669809  0.71610970    -0.83600
C336        C  0.21995573  0.86022980  0.57593483     0.95800
O337        O  0.19436625  0.84268278  0.60298355    -0.72700
O338        O  0.15671008  0.79209736  0.66143841    -0.76300
Al339      Al  0.20450580  0.83899884  0.66008325     1.49000
C340        C  0.14638520  0.75897372  0.64799001     0.91000
O341        O  0.23626992  0.75751197  0.61262803    -0.82500
O342        O  0.30552968  0.82569085  0.64257766    -0.76100
Al343      Al  0.22007823  0.77168513  0.66294612     1.90100
O344        O  0.25875869  0.80938499  0.57438396    -0.75100
O345        O  0.29757913  0.88784463  0.65570722    -0.75000
O346        O  0.25463777  0.87082405  0.58367311    -0.80600
O347        O  0.24521376  0.89128514  0.66143361    -0.78800
O348        O  0.23360534  0.81889631  0.64682482    -1.15000
O349        O  0.21215968  0.83577130  0.71832804    -0.74200
C350        C  0.20507769  0.80504424  0.73661327     0.96500
C351        C  0.24691033  0.77421359  0.57779339     0.92900
Al352      Al  0.27580359  0.84619262  0.61685500     1.55600
O353        O  0.17074295  0.74935796  0.63865413    -0.78800
C354        C  0.28132196  0.90733394  0.66255506     0.97100
C355        C  0.29889721  0.80336040  0.67315804     0.92000
O356        O  0.26655624  0.78714581  0.68990595    -0.84100
O357        O  0.41563041  0.70379843  0.62535632    -0.83600
C358        C  0.35010964  0.62087459  0.76555820     0.95800
O359        O  0.34221381  0.63855500  0.73824881    -0.72700
O360        O  0.35577361  0.68931382  0.67967193    -0.76300
Al361      Al  0.35614642  0.64195402  0.68105971     1.49000
C362        C  0.37860194  0.72215307  0.69356459     0.91000
O363        O  0.46909855  0.72188402  0.72856280    -0.82500
O364        O  0.47007180  0.65400799  0.69970506    -0.76100
Al365      Al  0.43872747  0.70818958  0.67837439     1.90100
O366        O  0.43891490  0.67060047  0.76743736    -0.75100
O367        O  0.39983729  0.59206450  0.68607815    -0.75000
O368        O  0.37368225  0.60945549  0.75781724    -0.80600
O369        O  0.34443474  0.58946583  0.67965839    -0.78800
O370        O  0.40496033  0.66131687  0.69460631    -1.15000
O371        O  0.36717019  0.64501500  0.62279608    -0.74200
C372        C  0.39093310  0.67560872  0.60465316     0.96500
C373        C  0.46264776  0.70553124  0.76366318     0.92900
Al374      Al  0.41954775  0.63371497  0.72496319     1.55600
O375        O  0.41238760  0.73127969  0.70275401    -0.78800
C376        C  0.36435214  0.57305522  0.67856495     0.97100
C377        C  0.48555520  0.67611351  0.66888193     0.92000
O378        O  0.46879138  0.69152240  0.65132665    -0.84100
O379        O  0.09702484  0.79584381  0.04941214    -0.83600
C380        C  0.16317927  0.77751166  0.90935926     0.95800
O381        O  0.17102180  0.80286390  0.93672236    -0.72700
O382        O  0.15734909  0.84046439  0.99460991    -0.76300
Al383      Al  0.15665980  0.79258516  0.99384706     1.49000
C384        C  0.13457970  0.85096187  0.98098744     0.91000
O385        O  0.04370929  0.76135038  0.94594468    -0.82500
O386        O  0.04291641  0.69258495  0.97439435    -0.76100
Al387      Al  0.07403942  0.77749817  0.99628261     1.90100
O388        O  0.07438923  0.74047576  0.90712954    -0.75100
O389        O  0.11241697  0.69928221  0.98819319    -0.75000
O390        O  0.13920824  0.74290051  0.91682071    -0.80600
O391        O  0.16778006  0.75124242  0.99582267    -0.78800
O392        O  0.10786391  0.76395282  0.98012066    -1.15000
O393        O  0.14563790  0.78523032  0.05223178    -0.74200
C394        C  0.12213315  0.79279278  0.07020346     0.96500
C395        C  0.05032446  0.75152408  0.91085856     0.92900
Al396      Al  0.09329333  0.72212299  0.94944517     1.55600
O397        O  0.10062508  0.82685079  0.97213432    -0.78800
C398        C  0.14771702  0.71513362  0.99652494     0.97100
C399        C  0.02737994  0.69884945  0.00547159     0.92000
O400        O  0.04363316  0.73083121  0.02308072    -0.84100
O401        O  0.31174559  0.58167348  0.95883078    -0.83600
C402        C  0.29322869  0.64626362  0.09987813     0.95800
O403        O  0.31855915  0.65436200  0.07245272    -0.72700
O404        O  0.35628498  0.64150908  0.01396002    -0.76300
Al405      Al  0.30818611  0.64044628  0.01540144     1.49000
C406        C  0.36703304  0.61879619  0.02711188     0.91000
O407        O  0.27795900  0.52720692  0.06185087    -0.82500
O408        O  0.20863272  0.52639434  0.03360189    -0.76100
Al409      Al  0.29372209  0.55807013  0.01180019     1.90100
O410        O  0.25640510  0.55695033  0.10117482    -0.75100
O411        O  0.21483923  0.59592561  0.02149177    -0.75000
O412        O  0.25870502  0.62172416  0.09276057    -0.80600
O413        O  0.26675067  0.65135204  0.01437368    -0.78800
O414        O  0.27980622  0.59146597  0.02862628    -1.15000
O415        O  0.30060578  0.62997344  0.95700157    -0.74200
C416        C  0.30824346  0.60675668  0.93851499     0.96500
C417        C  0.26798804  0.53334594  0.09709474     0.92900
Al418      Al  0.23795759  0.57633025  0.05942052     1.55600
O419        O  0.34308268  0.58480622  0.03591484    -0.78800
C420        C  0.23064676  0.63138802  0.01410753     0.97100
C421        C  0.21503352  0.51111030  0.00238702     0.92000
O422        O  0.24708696  0.52746730  0.98494493    -0.84100
O423        O  0.22064716  0.89974916  0.38315988    -0.83600
C424        C  0.13688678  0.83637119  0.24286323     0.95800
O425        O  0.15450963  0.82802165  0.26980517    -0.72700
O426        O  0.20533665  0.84029131  0.32798499    -0.76300
Al427      Al  0.15829392  0.84138502  0.32709973     1.49000
C428        C  0.23831803  0.86298063  0.31435649     0.91000
O429        O  0.23926441  0.95439681  0.28064002    -0.82500
O430        O  0.17164095  0.95588987  0.31077445    -0.76100
Al431      Al  0.22528851  0.92353717  0.33056997     1.90100
O432        O  0.18754137  0.92514660  0.24221311    -0.75100
O433        O  0.10919771  0.88604075  0.32374989    -0.75000
O434        O  0.12601162  0.86029822  0.25109140    -0.80600
O435        O  0.10613142  0.83037241  0.32885614    -0.78800
O436        O  0.17816248  0.89038646  0.31431884    -1.15000
O437        O  0.16156756  0.85176138  0.38539456    -0.74200
C438        C  0.19233157  0.87498273  0.40362901     0.96500
C439        C  0.22270717  0.94812663  0.24563917     0.92900
Al440      Al  0.15079096  0.90574911  0.28469624     1.55600
O441        O  0.24776028  0.89689432  0.30547813    -0.78800
C442        C  0.08995287  0.85046877  0.33054260     0.97100
C443        C  0.19397439  0.97092294  0.34152872     0.92000
O444        O  0.20935354  0.95384971  0.35843567    -0.84100
C445        C  0.24625088  0.97127709  0.13242417    -0.15100
C446        C  0.26676905  0.51122916  0.13398101     0.07000
C447        C  0.27863454  0.52970033  0.17274049    -0.15100
C448        C  0.26749416  0.00860619  0.20972184    -0.15100
C449        C  0.24345457  0.96896832  0.20818407     0.07000
C450        C  0.23418326  0.95026477  0.16939789    -0.15100
H451        H  0.23642691  0.95661874  0.10284381     0.11000
H452        H  0.29427208  0.56060759  0.17440257     0.11000
H453        H  0.27466632  0.02350577  0.23932532     0.11000
H454        H  0.21560306  0.91960312  0.16772079     0.11000
C455        C  0.15090890  0.79703711  0.14130686    -0.15100
C456        C  0.12394961  0.79966942  0.11568421     0.07000
C457        C  0.09900076  0.81069456  0.13357548    -0.15100
C458        C  0.10211034  0.82074126  0.17545500    -0.15100
C459        C  0.12997182  0.81967417  0.20071886     0.07000
C460        C  0.15378227  0.80682500  0.18365000    -0.15100
H461        H  0.17036847  0.78846269  0.12843176     0.11000
H462        H  0.07766469  0.81277788  0.11490789     0.11000
H463        H  0.08333262  0.83042824  0.18780818     0.11000
H464        H  0.17576018  0.80609314  0.20249822     0.11000
C465        C  0.17880113  0.91495203  0.95249699    -0.15100
C466        C  0.14785896  0.89195212  0.97822651     0.07000
C467        C  0.13464160  0.90902984  0.00696716    -0.15100
C468        C  0.15441852  0.94873529  0.01250517    -0.15100
C469        C  0.18736030  0.97173056  0.98893953     0.07000
C470        C  0.19800119  0.95453343  0.95729381    -0.15100
H471        H  0.18947608  0.90212998  0.93040670     0.11000
H472        H  0.11103717  0.89145864  0.02749887     0.11000
H473        H  0.14567104  0.96101169  0.03726170     0.11000
H474        H  0.22318112  0.97132022  0.93846625     0.11000
C475        C  0.14757429  0.65199527  0.00322670    -0.15100
C476        C  0.16723370  0.69227421  0.00355860     0.07000
C477        C  0.20724333  0.71146815  0.00697180    -0.15100
C478        C  0.22716627  0.69140415  0.00927108    -0.15100
C479        C  0.20792890  0.65126569  0.00871906     0.07000
C480        C  0.16772730  0.63165975  0.00616254    -0.15100
H481        H  0.11676409  0.63627340  0.00031361     0.11000
H482        H  0.22355767  0.74237075  0.00710295     0.11000
H483        H  0.25798669  0.70767030  0.01189994     0.11000
H484        H  0.15194916  0.60074587  0.00624809     0.11000
C485        C  0.47084585  0.68164200  0.05062551    -0.15100
C486        C  0.48788320  0.67119940  0.01861435     0.07000
C487        C  0.46467658  0.63863067  0.99458530    -0.15100
C488        C  0.42495179  0.61904042  0.00015194    -0.15100
C489        C  0.40807521  0.63210602  0.02934698     0.07000
C490        C  0.43126640  0.66268273  0.05541816    -0.15100
H491        H  0.48779345  0.70651211  0.06983833     0.11000
H492        H  0.47681803  0.63004691  0.96953506     0.11000
H493        H  0.40722230  0.59568336  0.97939383     0.11000
H494        H  0.41861362  0.67321506  0.07789407     0.11000
C495        C  0.02436849  0.74829117  0.79822296    -0.15100
C496        C  0.48452736  0.72620932  0.80059583     0.07000
C497        C  0.46645409  0.71880456  0.83964496    -0.15100
C498        C  0.48816682  0.73107278  0.87615980    -0.15100
C499        C  0.02810428  0.74973740  0.87386770     0.07000
C500        C  0.04609138  0.75953705  0.83474119    -0.15100
H501        H  0.03874355  0.75388493  0.76837843     0.11000
H502        H  0.43564923  0.70164587  0.84192286     0.11000
H503        H  0.47386274  0.72286173  0.90607305     0.11000
H504        H  0.07695667  0.77374268  0.83250851     0.11000
C505        C  0.33157526  0.58468642  0.83189369    -0.15100
C506        C  0.33338236  0.61443812  0.80760671     0.07000
C507        C  0.32394132  0.64047113  0.82575875    -0.15100
C508        C  0.31467852  0.63773530  0.86826797    -0.15100
C509        C  0.31447822  0.60873937  0.89291507     0.07000
C510        C  0.32207687  0.58175216  0.87390603    -0.15100
H511        H  0.33866607  0.56423968  0.81864335     0.11000
H512        H  0.32562728  0.66398091  0.80765887     0.11000
H513        H  0.30887202  0.65887107  0.88204984     0.11000
H514        H  0.32183053  0.55880030  0.89177911     0.11000
C515        C  0.19178254  0.76631553  0.80123976    -0.15100
C516        C  0.19916079  0.80076393  0.78221713     0.07000
C517        C  0.19899830  0.82953047  0.80686108    -0.15100
C518        C  0.18977492  0.82307953  0.84934615    -0.15100
C519        C  0.18031607  0.78770265  0.86750014     0.07000
C520        C  0.18228842  0.75981292  0.84327870    -0.15100
H521        H  0.19207566  0.74367161  0.78333925     0.11000
H522        H  0.20471240  0.85639439  0.79307199     0.11000
H523        H  0.18800102  0.84487056  0.86739563     0.11000
H524        H  0.17521065  0.73235765  0.85657136     0.11000
C525        C  0.08171245  0.73869814  0.62048401    -0.15100
C526        C  0.10542670  0.73116816  0.64585478     0.07000
C527        C  0.08909553  0.70057411  0.67417971    -0.15100
C528        C  0.04931993  0.67975317  0.67951483    -0.15100
C529        C  0.02550540  0.68899137  0.65601847     0.07000
C530        C  0.04215422  0.71737881  0.62492745    -0.15100
H531        H  0.09388944  0.76236045  0.59869368     0.11000
H532        H  0.10721266  0.69479669  0.69441869     0.11000
H533        H  0.03752250  0.65842018  0.70391904     0.11000
H534        H  0.02481381  0.72535441  0.60615338     0.11000
C535        C  0.28454738  0.97081262  0.66613499    -0.15100
C536        C  0.30371164  0.94962820  0.66800055     0.07000
C537        C  0.34382276  0.96965432  0.67159735    -0.15100
C538        C  0.36403072  0.50987241  0.67396998    -0.15100
C539        C  0.34456045  0.53085000  0.67214467     0.07000
C540        C  0.30457835  0.51062238  0.66795644    -0.15100
H541        H  0.25378865  0.95662695  0.66271426     0.11000
H542        H  0.35952881  0.95426818  0.67262513     0.11000
H543        H  0.39476971  0.52448952  0.67762807     0.11000
H544        H  0.28841998  0.52555090  0.66671773     0.11000
C545        C  0.31581383  0.76342940  0.71794795    -0.15100
C546        C  0.32665078  0.79146013  0.68658883     0.07000
C547        C  0.35961258  0.80113077  0.66302582    -0.15100
C548        C  0.37912775  0.78065833  0.66818633    -0.15100
C549        C  0.36558375  0.75015182  0.69653317     0.07000
C550        C  0.33470886  0.74251931  0.72232671    -0.15100
H551        H  0.29063614  0.75527413  0.73679208     0.11000
H552        H  0.36848988  0.82230312  0.63848178     0.11000
H553        H  0.40274740  0.78647651  0.64766197     0.11000
H554        H  0.32384811  0.71889516  0.74414572     0.11000
C555        C  0.23166277  0.89936575  0.46772801    -0.15100
C556        C  0.19675485  0.87328573  0.44909276     0.07000
C557        C  0.16763450  0.84537338  0.47397742    -0.15100
C558        C  0.17417599  0.84252335  0.51639493    -0.15100
C559        C  0.20995662  0.86736487  0.53413800     0.07000
C560        C  0.23823316  0.89630923  0.50968647    -0.15100
H561        H  0.25458501  0.92153561  0.44960133     0.11000
H562        H  0.14040161  0.82507929  0.46044149     0.11000
H563        H  0.15207407  0.81971962  0.53471863     0.11000
H564        H  0.26599321  0.91588005  0.52271783     0.11000
C565        C  0.48685594  0.83019165  0.34225160    -0.15100
C566        C  0.46651860  0.78996819  0.34029850     0.07000
C567        C  0.48737228  0.77062790  0.33649508    -0.15100
C568        C  0.02713416  0.79053248  0.33488176    -0.15100
C569        C  0.04771655  0.83064467  0.33646272     0.07000
C570        C  0.02711054  0.85037942  0.34000296    -0.15100
H571        H  0.47171304  0.84598123  0.34574471     0.11000
H572        H  0.47297495  0.73973726  0.33531393     0.11000
H573        H  0.04174642  0.77419297  0.33166752     0.11000
H574        H  0.04204394  0.88128152  0.34091974     0.11000
C575        C  0.31707919  0.84385062  0.34579292    -0.15100
C576        C  0.30766922  0.81095513  0.32222868     0.07000
C577        C  0.27971492  0.80003187  0.29070663    -0.15100
C578        C  0.25875071  0.81887585  0.28604920    -0.15100
C579        C  0.26623890  0.84978823  0.31173427     0.07000
C580        C  0.29658256  0.86331642  0.34034285    -0.15100
H581        H  0.33816857  0.85280047  0.37045597     0.11000
H582        H  0.27171582  0.77488065  0.27186734     0.11000
H583        H  0.23524701  0.80799572  0.26404254     0.11000
H584        H  0.30228612  0.88694283  0.36081076     0.11000
C585        C  0.25863766  0.56740117  0.38785496    -0.15100
C586        C  0.24941179  0.59068749  0.36390614     0.07000
C587        C  0.21708577  0.57395653  0.33794604    -0.15100
C588        C  0.19623500  0.53416939  0.33310035    -0.15100
C589        C  0.20717434  0.51078235  0.35482674     0.07000
C590        C  0.23728806  0.52781672  0.38400552    -0.15100
H591        H  0.28356891  0.57992609  0.40792872     0.11000
H592        H  0.20990081  0.59175689  0.31891776     0.11000
H593        H  0.17343800  0.52202280  0.31027434     0.11000
H594        H  0.24655635  0.51078945  0.40142425     0.11000
C595        C  0.34688774  0.68632937  0.20066215    -0.15100
C596        C  0.31749169  0.68408048  0.22614834     0.07000
C597        C  0.28184838  0.67390695  0.20816598    -0.15100
C598        C  0.27485449  0.66377832  0.16638897    -0.15100
C599        C  0.30341393  0.66395015  0.14139758     0.07000
C600        C  0.33991284  0.67646492  0.15838416    -0.15100
H601        H  0.37469948  0.69438917  0.21364881     0.11000
H602        H  0.25865949  0.67234096  0.22671905     0.11000
H603        H  0.24656452  0.65448323  0.15396704     0.11000
H604        H  0.36232420  0.67658578  0.13962852     0.11000
C605        C  0.27680624  0.72068385  0.50602680    -0.15100
C606        C  0.26963627  0.73190285  0.46708592     0.07000
C607        C  0.24856453  0.75099159  0.46495554    -0.15100
C608        C  0.23837089  0.76236415  0.50161417    -0.15100
C609        C  0.24812681  0.75369134  0.54062376     0.07000
C610        C  0.26556833  0.73104861  0.54268895    -0.15100
H611        H  0.29324901  0.70606293  0.50809308     0.11000
H612        H  0.24320948  0.76022816  0.43518337     0.11000
H613        H  0.22500520  0.77998069  0.49955733     0.11000
H614        H  0.27364914  0.72446821  0.57250429     0.11000
C615        C  0.36160909  0.65150589  0.53393642    -0.15100
C616        C  0.38992935  0.68006937  0.55902503     0.07000
C617        C  0.41692692  0.71463093  0.54045819    -0.15100
C618        C  0.41415559  0.72161016  0.49850074    -0.15100
C619        C  0.38467717  0.69402855  0.47394976     0.07000
C620        C  0.35910516  0.65840990  0.49152444    -0.15100
H621        H  0.34063820  0.62452298  0.54735043     0.11000
H622        H  0.43950610  0.73707465  0.55869816     0.11000
H623        H  0.43431538  0.74919087  0.48556909     0.11000
H624        H  0.33591805  0.63681473  0.47311384     0.11000
O625        O  0.79390680  0.18650991  0.29233610    -0.83600
C626        C  0.87769449  0.20462254  0.43232458     0.95800
O627        O  0.86056513  0.17941685  0.40480688    -0.72700
O628        O  0.80985232  0.14197893  0.34675340    -0.76300
Al629      Al  0.85661894  0.18991937  0.34789735     1.49000
C630        C  0.77682684  0.13161059  0.36066345     0.91000
O631        O  0.77443673  0.22117679  0.39506466    -0.82500
O632        O  0.84172262  0.28985892  0.36677920    -0.76100
Al633      Al  0.78896551  0.20495713  0.34512728     1.90100
O634        O  0.82553902  0.24201312  0.43433444    -0.75100
O635        O  0.90464507  0.28309811  0.35393599    -0.75000
O636        O  0.88782780  0.23929124  0.42523502    -0.80600
O637        O  0.90859311  0.23111077  0.34653835    -0.78800
O638        O  0.83612313  0.21853657  0.36155001    -1.15000
O639        O  0.85322704  0.19776831  0.28966170    -0.74200
C640        C  0.82226357  0.19022850  0.27161916     0.96500
C641        C  0.79053412  0.23077892  0.43029489     0.92900
Al642      Al  0.86276640  0.26031144  0.39227573     1.55600
O643        O  0.76690550  0.15583226  0.36957793    -0.78800
C644        C  0.92431760  0.26721105  0.34616343     0.97100
C645        C  0.82000959  0.28347667  0.33556394     0.92000
O646        O  0.80470510  0.25146274  0.31805425    -0.84100
O647        O  0.70181412  0.27669812  0.71610970    -0.83600
C648        C  0.71995570  0.36022983  0.57593485     0.95800
O649        O  0.69436624  0.34268282  0.60298357    -0.72700
O650        O  0.65671008  0.29209723  0.66143846    -0.76300
Al651      Al  0.70450579  0.33899879  0.66008325     1.49000
C652        C  0.64638523  0.25897357  0.64799009     0.91000
O653        O  0.73626983  0.25751186  0.61262801    -0.82500
O654        O  0.80552964  0.32569081  0.64257755    -0.76100
Al655      Al  0.72007824  0.27168508  0.66294614     1.90100
O656        O  0.75875873  0.30938491  0.57438397    -0.75100
O657        O  0.79757915  0.38784458  0.65570713    -0.75000
O658        O  0.75463773  0.37082400  0.58367308    -0.80600
O659        O  0.74521376  0.39128506  0.66143358    -0.78800
O660        O  0.73360532  0.31889624  0.64682481    -1.15000
O661        O  0.71215966  0.33577132  0.71832804    -0.74200
C662        C  0.70507771  0.30504426  0.73661326     0.96500
C663        C  0.74691027  0.27421350  0.57779339     0.92900
Al664      Al  0.77580358  0.34619257  0.61685495     1.55600
O665        O  0.67074299  0.24935786  0.63865416    -0.78800
C666        C  0.78132197  0.40733388  0.66255496     0.97100
C667        C  0.79889725  0.30336043  0.67315800     0.92000
O668        O  0.76655629  0.28714582  0.68990593    -0.84100
O669        O  0.91563041  0.20379833  0.62535633    -0.83600
C670        C  0.85010964  0.12087463  0.76555823     0.95800
O671        O  0.84221378  0.13855503  0.73824886    -0.72700
O672        O  0.85577361  0.18931375  0.67967195    -0.76300
Al673      Al  0.85614639  0.14195401  0.68105976     1.49000
C674        C  0.87860198  0.22215302  0.69356454     0.91000
O675        O  0.96909858  0.22188407  0.72856280    -0.82500
O676        O  0.97007183  0.15400801  0.69970510    -0.76100
Al677      Al  0.93872749  0.20818955  0.67837440     1.90100
O678        O  0.93891489  0.17060053  0.76743737    -0.75100
O679        O  0.89983725  0.09206455  0.68607820    -0.75000
O680        O  0.87368224  0.10945553  0.75781724    -0.80600
O681        O  0.84443468  0.08946584  0.67965851    -0.78800
O682        O  0.90496034  0.16131688  0.69460633    -1.15000
O683        O  0.86717012  0.14501491  0.62279611    -0.74200
C684        C  0.89093311  0.17560861  0.60465317     0.96500
C685        C  0.96264779  0.20553128  0.76366318     0.92900
Al686      Al  0.91954776  0.13371501  0.72496322     1.55600
O687        O  0.91238761  0.23127960  0.70275400    -0.78800
C688        C  0.86435209  0.07305524  0.67856507     0.97100
C689        C  0.98555524  0.17611350  0.66888193     0.92000
O690        O  0.96879147  0.19152244  0.65132667    -0.84100
O691        O  0.59702487  0.29584385  0.04941215    -0.83600
C692        C  0.66317934  0.27751167  0.90935926     0.95800
O693        O  0.67102193  0.30286392  0.93672236    -0.72700
O694        O  0.65734916  0.34046443  0.99460993    -0.76300
Al695      Al  0.65665987  0.29258517  0.99384707     1.49000
C696        C  0.63457973  0.35096186  0.98098744     0.91000
O697        O  0.54370935  0.26135043  0.94594475    -0.82500
O698        O  0.54291648  0.19258497  0.97439443    -0.76100
Al699      Al  0.57403947  0.27749818  0.99628263     1.90100
O700        O  0.57438912  0.24047562  0.90712957    -0.75100
O701        O  0.61241704  0.19928222  0.98819317    -0.75000
O702        O  0.63920828  0.24290053  0.91682072    -0.80600
O703        O  0.66778015  0.25124240  0.99582268    -0.78800
O704        O  0.60786396  0.26395281  0.98012069    -1.15000
O705        O  0.64563793  0.28523036  0.05223178    -0.74200
C706        C  0.62213319  0.29279285  0.07020346     0.96500
C707        C  0.55032446  0.25152409  0.91085861     0.92900
Al708      Al  0.59329335  0.22212296  0.94944519     1.55600
O709        O  0.60062514  0.32685073  0.97213427    -0.78800
C710        C  0.64771707  0.21513358  0.99652494     0.97100
C711        C  0.52737994  0.19884948  0.00547159     0.92000
O712        O  0.54363310  0.23083126  0.02308070    -0.84100
O713        O  0.81174556  0.08167350  0.95883077    -0.83600
C714        C  0.79322864  0.14626359  0.09987814     0.95800
O715        O  0.81855911  0.15436199  0.07245272    -0.72700
O716        O  0.85628491  0.14150901  0.01395997    -0.76300
Al717      Al  0.80818606  0.14044625  0.01540148     1.49000
C718        C  0.86703301  0.11879614  0.02711186     0.91000
O719        O  0.77795897  0.02720694  0.06185082    -0.82500
O720        O  0.70863273  0.02639436  0.03360187    -0.76100
Al721      Al  0.79372209  0.05807011  0.01180017     1.90100
O722        O  0.75640508  0.05695034  0.10117480    -0.75100
O723        O  0.71483922  0.09592563  0.02149176    -0.75000
O724        O  0.75870500  0.12172407  0.09276061    -0.80600
O725        O  0.76675066  0.15135205  0.01437387    -0.78800
O726        O  0.77980622  0.09146593  0.02862630    -1.15000
O727        O  0.80060568  0.12997342  0.95700159    -0.74200
C728        C  0.80824340  0.10675669  0.93851498     0.96500
C729        C  0.76798803  0.03334596  0.09709469     0.92900
Al730      Al  0.73795758  0.07633024  0.05942051     1.55600
O731        O  0.84308269  0.08480617  0.03591487    -0.78800
C732        C  0.73064676  0.13138805  0.01410760     0.97100
C733        C  0.71503355  0.01111029  0.00238704     0.92000
O734        O  0.74708697  0.02746731  0.98494491    -0.84100
O735        O  0.72064711  0.39974923  0.38315988    -0.83600
C736        C  0.63688687  0.33637120  0.24286321     0.95800
O737        O  0.65450966  0.32802164  0.26980519    -0.72700
O738        O  0.70533660  0.34029135  0.32798500    -0.76300
Al739      Al  0.65829390  0.34138505  0.32709975     1.49000
C740        C  0.73831797  0.36298066  0.31435648     0.91000
O741        O  0.73926450  0.45439674  0.28064000    -0.82500
O742        O  0.67164094  0.45588981  0.31077442    -0.76100
Al743      Al  0.72528851  0.42353719  0.33056998     1.90100
O744        O  0.68754142  0.42514660  0.24221312    -0.75100
O745        O  0.60919773  0.38604074  0.32374989    -0.75000
O746        O  0.62601164  0.36029818  0.25109139    -0.80600
O747        O  0.60613141  0.33037238  0.32885613    -0.78800
O748        O  0.67816248  0.39038647  0.31431883    -1.15000
O749        O  0.66156752  0.35176145  0.38539458    -0.74200
C750        C  0.69233155  0.37498278  0.40362901     0.96500
C751        C  0.72270723  0.44812661  0.24563918     0.92900
Al752      Al  0.65079098  0.40574908  0.28469621     1.55600
O753        O  0.74776024  0.39689436  0.30547816    -0.78800
C754        C  0.58995287  0.35046875  0.33054260     0.97100
C755        C  0.69397435  0.47092290  0.34152872     0.92000
O756        O  0.70935352  0.45384972  0.35843569    -0.84100
C757        C  0.74625077  0.47127702  0.13242418    -0.15100
C758        C  0.76676910  0.01122919  0.13398094     0.07000
C759        C  0.77863453  0.02970042  0.17274040    -0.15100
C760        C  0.76749413  0.50860618  0.20972185    -0.15100
C761        C  0.74345455  0.46896831  0.20818409     0.07000
C762        C  0.73418321  0.45026478  0.16939794    -0.15100
H763        H  0.73642681  0.45661867  0.10284391     0.11000
H764        H  0.79427200  0.06060759  0.17440243     0.11000
H765        H  0.77466632  0.52350576  0.23932539     0.11000
H766        H  0.71560298  0.41960302  0.16772087     0.11000
C767        C  0.65090890  0.29703712  0.14130684    -0.15100
C768        C  0.62394966  0.29966949  0.11568420     0.07000
C769        C  0.59900078  0.31069461  0.13357548    -0.15100
C770        C  0.60211042  0.32074129  0.17545501    -0.15100
C771        C  0.62997188  0.31967417  0.20071884     0.07000
C772        C  0.65378229  0.30682489  0.18365002    -0.15100
H773        H  0.67036855  0.28846270  0.12843167     0.11000
H774        H  0.57766475  0.31277793  0.11490796     0.11000
H775        H  0.58333272  0.33042829  0.18780822     0.11000
H776        H  0.67576010  0.30609295  0.20249816     0.11000
C777        C  0.67880105  0.41495206  0.95249695    -0.15100
C778        C  0.64785891  0.39195213  0.97822648     0.07000
C779        C  0.63464161  0.40902989  0.00696715    -0.15100
C780        C  0.65441860  0.44873532  0.01250524    -0.15100
C781        C  0.68736036  0.47173057  0.98893955     0.07000
C782        C  0.69800117  0.45453346  0.95729376    -0.15100
H783        H  0.68947597  0.40212998  0.93040658     0.11000
H784        H  0.61103715  0.39145868  0.02749891     0.11000
H785        H  0.64567121  0.46101175  0.03726181     0.11000
H786        H  0.72318107  0.47132025  0.93846613     0.11000
C787        C  0.64757428  0.15199519  0.00322668    -0.15100
C788        C  0.66723372  0.19227416  0.00355859     0.07000
C789        C  0.70724333  0.21146809  0.00697184    -0.15100
C790        C  0.72716635  0.19140417  0.00927107    -0.15100
C791        C  0.70792892  0.15126570  0.00871905     0.07000
C792        C  0.66772736  0.13165974  0.00616254    -0.15100
H793        H  0.61676414  0.13627334  0.00031359     0.11000
H794        H  0.72355768  0.24237075  0.00710307     0.11000
H795        H  0.75798667  0.20767027  0.01189996     0.11000
H796        H  0.65194926  0.10074583  0.00624812     0.11000
C797        C  0.97084587  0.18164193  0.05062555    -0.15100
C798        C  0.98788323  0.17119939  0.01861434     0.07000
C799        C  0.96467659  0.13863068  0.99458530    -0.15100
C800        C  0.92495181  0.11904034  0.00015196    -0.15100
C801        C  0.90807520  0.13210601  0.02934695     0.07000
C802        C  0.93126643  0.16268269  0.05541811    -0.15100
H803        H  0.98779350  0.20651203  0.06983843     0.11000
H804        H  0.97681806  0.13004693  0.96953493     0.11000
H805        H  0.90722236  0.09568327  0.97939395     0.11000
H806        H  0.91861363  0.17321506  0.07789408     0.11000
C807        C  0.52436858  0.24829116  0.79822294    -0.15100
C808        C  0.98452737  0.22620938  0.80059583     0.07000
C809        C  0.96645409  0.21880465  0.83964495    -0.15100
C810        C  0.98816682  0.23107286  0.87615981    -0.15100
C811        C  0.52810432  0.24973750  0.87386774     0.07000
C812        C  0.54609147  0.25953709  0.83474122    -0.15100
H813        H  0.53874365  0.25388490  0.76837849     0.11000
H814        H  0.93564922  0.20164596  0.84192283     0.11000
H815        H  0.97386273  0.22286181  0.90607305     0.11000
H816        H  0.57695668  0.27374265  0.83250857     0.11000
C817        C  0.83157540  0.08468652  0.83189374    -0.15100
C818        C  0.83338243  0.11443817  0.80760674     0.07000
C819        C  0.82394136  0.14047118  0.82575875    -0.15100
C820        C  0.81467862  0.13773539  0.86826798    -0.15100
C821        C  0.81447820  0.10873940  0.89291506     0.07000
C822        C  0.82207685  0.08175217  0.87390603    -0.15100
H823        H  0.83866626  0.06423982  0.81864343     0.11000
H824        H  0.82562727  0.16398089  0.80765887     0.11000
H825        H  0.80887222  0.15887125  0.88204985     0.11000
H826        H  0.82183042  0.05880027  0.89177911     0.11000
C827        C  0.69178266  0.26631553  0.80123973    -0.15100
C828        C  0.69916079  0.30076392  0.78221712     0.07000
C829        C  0.69899819  0.32953037  0.80686110    -0.15100
C830        C  0.68977503  0.32307951  0.84934618    -0.15100
C831        C  0.68031617  0.28770262  0.86750015     0.07000
C832        C  0.68228854  0.25981292  0.84327870    -0.15100
H833        H  0.69207583  0.24367169  0.78333924     0.11000
H834        H  0.70471221  0.35639436  0.79307197     0.11000
H835        H  0.68800122  0.34487057  0.86739571     0.11000
H836        H  0.67521075  0.23235761  0.85657131     0.11000
C837        C  0.58171241  0.23869799  0.62048406    -0.15100
C838        C  0.60542670  0.23116801  0.64585478     0.07000
C839        C  0.58909550  0.20057392  0.67417968    -0.15100
C840        C  0.54931990  0.17975308  0.67951484    -0.15100
C841        C  0.52550535  0.18899129  0.65601849     0.07000
C842        C  0.54215416  0.21737876  0.62492748    -0.15100
H843        H  0.59388940  0.26236037  0.59869367     0.11000
H844        H  0.60721259  0.19479648  0.69441864     0.11000
H845        H  0.53752249  0.15842015  0.70391916     0.11000
H846        H  0.52481378  0.22535439  0.60615354     0.11000
C847        C  0.78454732  0.47081251  0.66613500    -0.15100
C848        C  0.80371162  0.44962814  0.66800050     0.07000
C849        C  0.84382275  0.46965428  0.67159729    -0.15100
C850        C  0.86403070  0.00987248  0.67397017    -0.15100
C851        C  0.84456041  0.03085006  0.67214478     0.07000
C852        C  0.80457833  0.01062245  0.66795643    -0.15100
H853        H  0.75378861  0.45662681  0.66271427     0.11000
H854        H  0.85952879  0.45426816  0.67262509     0.11000
H855        H  0.89476966  0.02448957  0.67762837     0.11000
H856        H  0.78841997  0.02555098  0.66671771     0.11000
C857        C  0.81581396  0.26342950  0.71794794    -0.15100
C858        C  0.82665086  0.29146019  0.68658879     0.07000
C859        C  0.85961260  0.30113077  0.66302576    -0.15100
C860        C  0.87912783  0.28065837  0.66818625    -0.15100
C861        C  0.86558379  0.25015181  0.69653308     0.07000
C862        C  0.83470891  0.24251933  0.72232663    -0.15100
H863        H  0.79063628  0.25527430  0.73679218     0.11000
H864        H  0.86848985  0.32230307  0.63848165     0.11000
H865        H  0.90274740  0.28647655  0.64766193     0.11000
H866        H  0.82384821  0.21889519  0.74414566     0.11000
C867        C  0.73166277  0.39936579  0.46772803    -0.15100
C868        C  0.69675488  0.37328573  0.44909274     0.07000
C869        C  0.66763454  0.34537335  0.47397738    -0.15100
C870        C  0.67417597  0.34252339  0.51639491    -0.15100
C871        C  0.70995659  0.36736490  0.53413802     0.07000
C872        C  0.73823312  0.39630920  0.50968647    -0.15100
H873        H  0.75458498  0.42153572  0.44960139     0.11000
H874        H  0.64040168  0.32507923  0.46044140     0.11000
H875        H  0.65207399  0.31971964  0.53471865     0.11000
H876        H  0.76599323  0.41588004  0.52271789     0.11000
C877        C  0.98685588  0.33019160  0.34225159    -0.15100
C878        C  0.96651853  0.28996815  0.34029850     0.07000
C879        C  0.98737220  0.27062782  0.33649508    -0.15100
C880        C  0.52713420  0.29053243  0.33488177    -0.15100
C881        C  0.54771654  0.33064463  0.33646273     0.07000
C882        C  0.52711050  0.35037933  0.34000293    -0.15100
H883        H  0.97171300  0.34598119  0.34574467     0.11000
H884        H  0.97297492  0.23973731  0.33531394     0.11000
H885        H  0.54174646  0.27419298  0.33166753     0.11000
H886        H  0.54204395  0.38128154  0.34091963     0.11000
C887        C  0.81707923  0.34385070  0.34579289    -0.15100
C888        C  0.80766921  0.31095519  0.32222865     0.07000
C889        C  0.77971490  0.30003193  0.29070661    -0.15100
C890        C  0.75875069  0.31887593  0.28604905    -0.15100
C891        C  0.76623887  0.34978827  0.31173424     0.07000
C892        C  0.79658251  0.36331644  0.34034283    -0.15100
H893        H  0.83816858  0.35280055  0.37045584     0.11000
H894        H  0.77171577  0.27488069  0.27186728     0.11000
H895        H  0.73524715  0.30799592  0.26404243     0.11000
H896        H  0.80228606  0.38694281  0.36081078     0.11000
C897        C  0.75863780  0.06740122  0.38785491    -0.15100
C898        C  0.74941189  0.09068753  0.36390613     0.07000
C899        C  0.71708589  0.07395657  0.33794605    -0.15100
C900        C  0.69623501  0.03416944  0.33310042    -0.15100
C901        C  0.70717437  0.01078239  0.35482679     0.07000
C902        C  0.73728817  0.02781674  0.38400550    -0.15100
H903        H  0.78356906  0.07992613  0.40792867     0.11000
H904        H  0.70990092  0.09175699  0.31891778     0.11000
H905        H  0.67343798  0.02202289  0.31027455     0.11000
H906        H  0.74655643  0.01078949  0.40142417     0.11000
C907        C  0.84688759  0.18632917  0.20066217    -0.15100
C908        C  0.81749158  0.18408034  0.22614836     0.07000
C909        C  0.78184829  0.17390696  0.20816598    -0.15100
C910        C  0.77485442  0.16377836  0.16638894    -0.15100
C911        C  0.80341384  0.16395013  0.14139757     0.07000
C912        C  0.83991270  0.17646478  0.15838417    -0.15100
H913        H  0.87469935  0.19438900  0.21364881     0.11000
H914        H  0.75865948  0.17234108  0.22671904     0.11000
H915        H  0.74656447  0.15448334  0.15396698     0.11000
H916        H  0.86232406  0.17658562  0.13962853     0.11000
C917        C  0.77680626  0.22068380  0.50602679    -0.15100
C918        C  0.76963623  0.23190279  0.46708593     0.07000
C919        C  0.74856441  0.25099146  0.46495559    -0.15100
C920        C  0.73837081  0.26236406  0.50161418    -0.15100
C921        C  0.74812675  0.25369124  0.54062377     0.07000
C922        C  0.76556839  0.23104861  0.54268895    -0.15100
H923        H  0.79324901  0.20606293  0.50809303     0.11000
H924        H  0.74320931  0.26022801  0.43518338     0.11000
H925        H  0.72500519  0.27998064  0.49955732     0.11000
H926        H  0.77364932  0.22446830  0.57250423     0.11000
C927        C  0.86160909  0.15150591  0.53393641    -0.15100
C928        C  0.88992939  0.18006935  0.55902503     0.07000
C929        C  0.91692689  0.21463096  0.54045821    -0.15100
C930        C  0.91415558  0.22161025  0.49850075    -0.15100
C931        C  0.88467715  0.19402860  0.47394976     0.07000
C932        C  0.85910522  0.15840995  0.49152443    -0.15100
H933        H  0.84063817  0.12452306  0.54735043     0.11000
H934        H  0.93950608  0.23707470  0.55869820     0.11000
H935        H  0.93431532  0.24919090  0.48556910     0.11000
H936        H  0.83591810  0.13681471  0.47311379     0.11000
O937        O  0.79390679  0.68650985  0.29233609    -0.83600
C938        C  0.87769449  0.70462249  0.43232457     0.95800
O939        O  0.86056509  0.67941680  0.40480689    -0.72700
O940        O  0.80985227  0.64197885  0.34675340    -0.76300
Al941      Al  0.85661892  0.68991934  0.34789736     1.49000
C942        C  0.77682680  0.63161053  0.36066346     0.91000
O943        O  0.77443673  0.72117674  0.39506466    -0.82500
O944        O  0.84172262  0.78985888  0.36677921    -0.76100
Al945      Al  0.78896551  0.70495708  0.34512728     1.90100
O946        O  0.82553902  0.74201305  0.43433444    -0.75100
O947        O  0.90464513  0.78309818  0.35393602    -0.75000
O948        O  0.88782781  0.73929119  0.42523502    -0.80600
O949        O  0.90859310  0.73111082  0.34653835    -0.78800
O950        O  0.83612312  0.71853655  0.36155001    -1.15000
O951        O  0.85322702  0.69776826  0.28966172    -0.74200
C952        C  0.82226358  0.69022850  0.27161916     0.96500
C953        C  0.79053413  0.73077888  0.43029489     0.92900
Al954      Al  0.86276641  0.76031142  0.39227574     1.55600
O955        O  0.76690549  0.65583222  0.36957794    -0.78800
C956        C  0.92431763  0.76721111  0.34616343     0.97100
C957        C  0.82000958  0.78347662  0.33556393     0.92000
O958        O  0.80470511  0.75146270  0.31805425    -0.84100
O959        O  0.70181408  0.77669809  0.71610970    -0.83600
C960        C  0.71995573  0.86022980  0.57593483     0.95800
O961        O  0.69436628  0.84268280  0.60298356    -0.72700
O962        O  0.65671013  0.79209736  0.66143841    -0.76300
Al963      Al  0.70450584  0.83899885  0.66008325     1.49000
C964        C  0.64638523  0.75897372  0.64798999     0.91000
O965        O  0.73626990  0.75751196  0.61262802    -0.82500
O966        O  0.80552967  0.82569086  0.64257768    -0.76100
Al967      Al  0.72007823  0.77168512  0.66294613     1.90100
O968        O  0.75875881  0.80938501  0.57438396    -0.75100
O969        O  0.79757918  0.88784464  0.65570722    -0.75000
O970        O  0.75463777  0.87082401  0.58367308    -0.80600
O971        O  0.74521380  0.89128512  0.66143362    -0.78800
O972        O  0.73360536  0.81889630  0.64682482    -1.15000
O973        O  0.71215964  0.83577130  0.71832804    -0.74200
C974        C  0.70507764  0.80504423  0.73661326     0.96500
C975        C  0.74691032  0.77421358  0.57779338     0.92900
Al976      Al  0.77580363  0.84619262  0.61685500     1.55600
O977        O  0.67074295  0.74935793  0.63865411    -0.78800
C978        C  0.78132199  0.90733394  0.66255506     0.97100
C979        C  0.79889721  0.80336040  0.67315805     0.92000
O980        O  0.76655623  0.78714580  0.68990597    -0.84100
O981        O  0.91563042  0.70379843  0.62535632    -0.83600
C982        C  0.85010963  0.62087459  0.76555819     0.95800
O983        O  0.84221377  0.63855499  0.73824883    -0.72700
O984        O  0.85577367  0.68931385  0.67967195    -0.76300
Al985      Al  0.85614640  0.64195403  0.68105972     1.49000
C986        C  0.87860204  0.72215310  0.69356459     0.91000
O987        O  0.96909858  0.72188400  0.72856280    -0.82500
O988        O  0.97007184  0.65400798  0.69970508    -0.76100
Al989      Al  0.93872751  0.70818956  0.67837438     1.90100
O990        O  0.93891488  0.67060046  0.76743736    -0.75100
O991        O  0.89983724  0.59206450  0.68607814    -0.75000
O992        O  0.87368223  0.60945549  0.75781719    -0.80600
O993        O  0.84443468  0.58946583  0.67965838    -0.78800
O994        O  0.90496033  0.66131687  0.69460630    -1.15000
O995        O  0.86717015  0.64501501  0.62279608    -0.74200
C996        C  0.89093310  0.67560872  0.60465316     0.96500
C997        C  0.96264778  0.70553122  0.76366319     0.92900
Al998      Al  0.91954774  0.63371497  0.72496318     1.55600
O999        O  0.91238770  0.73127968  0.70275398    -0.78800
C1000       C  0.86435208  0.57305521  0.67856495     0.97100
C1001       C  0.98555525  0.67611349  0.66888193     0.92000
O1002       O  0.96879144  0.69152238  0.65132665    -0.84100
O1003       O  0.59702487  0.79584380  0.04941215    -0.83600
C1004       C  0.66317932  0.77751165  0.90935925     0.95800
O1005       O  0.67102194  0.80286389  0.93672237    -0.72700
O1006       O  0.65734918  0.84046441  0.99460993    -0.76300
Al1007     Al  0.65665989  0.79258516  0.99384707     1.49000
C1008       C  0.63457977  0.85096186  0.98098745     0.91000
O1009       O  0.54370936  0.76135042  0.94594469    -0.82500
O1010       O  0.54291645  0.69258495  0.97439441    -0.76100
Al1011     Al  0.57403948  0.77749817  0.99628260     1.90100
O1012       O  0.57438924  0.74047574  0.90712951    -0.75100
O1013       O  0.61241699  0.69928225  0.98819320    -0.75000
O1014       O  0.63920830  0.74290050  0.91682073    -0.80600
O1015       O  0.66778012  0.75124241  0.99582266    -0.78800
O1016       O  0.60786398  0.76395282  0.98012067    -1.15000
O1017       O  0.64563794  0.78523031  0.05223178    -0.74200
C1018       C  0.62213319  0.79279279  0.07020346     0.96500
C1019       C  0.55032448  0.75152408  0.91085856     0.92900
Al1020     Al  0.59329337  0.72212299  0.94944518     1.55600
O1021       O  0.60062516  0.82685076  0.97213429    -0.78800
C1022       C  0.64771703  0.71513361  0.99652494     0.97100
C1023       C  0.52737993  0.69884946  0.00547158     0.92000
O1024       O  0.54363313  0.73083123  0.02308069    -0.84100
O1025       O  0.81174554  0.58167348  0.95883078    -0.83600
C1026       C  0.79322869  0.64626360  0.09987814     0.95800
O1027       O  0.81855915  0.65436201  0.07245272    -0.72700
O1028       O  0.85628497  0.64150908  0.01396001    -0.76300
Al1029     Al  0.80818609  0.64044629  0.01540144     1.49000
C1030       C  0.86703304  0.61879620  0.02711188     0.91000
O1031       O  0.77795895  0.52720692  0.06185086    -0.82500
O1032       O  0.70863271  0.52639434  0.03360189    -0.76100
Al1033     Al  0.79372206  0.55807013  0.01180018     1.90100
O1034       O  0.75640509  0.55695034  0.10117482    -0.75100
O1035       O  0.71483922  0.59592561  0.02149178    -0.75000
O1036       O  0.75870502  0.62172415  0.09276057    -0.80600
O1037       O  0.76675065  0.65135204  0.01437369    -0.78800
O1038       O  0.77980621  0.59146598  0.02862627    -1.15000
O1039       O  0.80060573  0.62997343  0.95700156    -0.74200
C1040       C  0.80824341  0.60675667  0.93851498     0.96500
C1041       C  0.76798799  0.53334593  0.09709474     0.92900
Al1042     Al  0.73795758  0.57633026  0.05942052     1.55600
O1043       O  0.84308267  0.58480622  0.03591484    -0.78800
C1044       C  0.73064673  0.63138802  0.01410753     0.97100
C1045       C  0.71503351  0.51111030  0.00238703     0.92000
O1046       O  0.74708693  0.52746732  0.98494492    -0.84100
O1047       O  0.72064711  0.89974916  0.38315988    -0.83600
C1048       C  0.63688677  0.83637120  0.24286322     0.95800
O1049       O  0.65450958  0.82802165  0.26980519    -0.72700
O1050       O  0.70533659  0.84029130  0.32798499    -0.76300
Al1051     Al  0.65829387  0.84138502  0.32709973     1.49000
C1052       C  0.73831797  0.86298062  0.31435649     0.91000
O1053       O  0.73926452  0.95439682  0.28064002    -0.82500
O1054       O  0.67164102  0.95588989  0.31077439    -0.76100
Al1055     Al  0.72528849  0.92353716  0.33056998     1.90100
O1056       O  0.68754148  0.92514656  0.24221314    -0.75100
O1057       O  0.60919770  0.88604078  0.32374986    -0.75000
O1058       O  0.62601158  0.86029821  0.25109138    -0.80600
O1059       O  0.60613142  0.83037243  0.32885613    -0.78800
O1060       O  0.67816245  0.89038646  0.31431884    -1.15000
O1061       O  0.66156751  0.85176138  0.38539458    -0.74200
C1062       C  0.69233154  0.87498271  0.40362901     0.96500
C1063       C  0.72270728  0.94812662  0.24563917     0.92900
Al1064     Al  0.65079098  0.90574912  0.28469621     1.55600
O1065       O  0.74776022  0.89689431  0.30547814    -0.78800
C1066       C  0.58995287  0.85046879  0.33054260     0.97100
C1067       C  0.69397438  0.97092294  0.34152872     0.92000
O1068       O  0.70935352  0.95384971  0.35843571    -0.84100
C1069       C  0.74625085  0.97127708  0.13242414    -0.15100
C1070       C  0.76676899  0.51122916  0.13398101     0.07000
C1071       C  0.77863448  0.52970034  0.17274049    -0.15100
C1072       C  0.76749412  0.00860623  0.20972178    -0.15100
C1073       C  0.74345459  0.96896834  0.20818404     0.07000
C1074       C  0.73418323  0.95026477  0.16939788    -0.15100
H1075       H  0.73642685  0.95661871  0.10284380     0.11000
H1076       H  0.79427205  0.56060759  0.17440256     0.11000
H1077       H  0.77466629  0.02350583  0.23932522     0.11000
H1078       H  0.71560307  0.91960313  0.16772081     0.11000
C1079       C  0.65090895  0.79703710  0.14130685    -0.15100
C1080       C  0.62394966  0.79966944  0.11568421     0.07000
C1081       C  0.59900080  0.81069455  0.13357549    -0.15100
C1082       C  0.60211038  0.82074125  0.17545500    -0.15100
C1083       C  0.62997187  0.81967420  0.20071885     0.07000
C1084       C  0.65378236  0.80682502  0.18365001    -0.15100
H1085       H  0.67036851  0.78846264  0.12843175     0.11000
H1086       H  0.57766471  0.81277785  0.11490791     0.11000
H1087       H  0.58333265  0.83042819  0.18780819     0.11000
H1088       H  0.67576022  0.80609315  0.20249817     0.11000
C1089       C  0.67880110  0.91495202  0.95249695    -0.15100
C1090       C  0.64785896  0.89195212  0.97822650     0.07000
C1091       C  0.63464160  0.90902985  0.00696715    -0.15100
C1092       C  0.65441862  0.94873528  0.01250524    -0.15100
C1093       C  0.68736040  0.97173054  0.98893958     0.07000
C1094       C  0.69800120  0.95453343  0.95729377    -0.15100
H1095       H  0.68947602  0.90212996  0.93040664     0.11000
H1096       H  0.61103715  0.89145867  0.02749884     0.11000
H1097       H  0.64567121  0.96101171  0.03726181     0.11000
H1098       H  0.72318110  0.97132021  0.93846615     0.11000
C1099       C  0.64757424  0.65199524  0.00322670    -0.15100
C1100       C  0.66723367  0.69227419  0.00355861     0.07000
C1101       C  0.70724329  0.71146813  0.00697180    -0.15100
C1102       C  0.72716625  0.69140415  0.00927107    -0.15100
C1103       C  0.70792887  0.65126570  0.00871905     0.07000
C1104       C  0.66772728  0.63165975  0.00616253    -0.15100
H1105       H  0.61676410  0.63627343  0.00031361     0.11000
H1106       H  0.72355761  0.74237074  0.00710295     0.11000
H1107       H  0.75798668  0.70767030  0.01189994     0.11000
H1108       H  0.65194917  0.60074588  0.00624810     0.11000
C1109       C  0.97084588  0.68164199  0.05062552    -0.15100
C1110       C  0.98788323  0.67119938  0.01861437     0.07000
C1111       C  0.96467657  0.63863067  0.99458532    -0.15100
C1112       C  0.92495180  0.61904044  0.00015192    -0.15100
C1113       C  0.90807522  0.63210603  0.02934699     0.07000
C1114       C  0.93126646  0.66268271  0.05541816    -0.15100
H1115       H  0.98779351  0.70651213  0.06983832     0.11000
H1116       H  0.97681802  0.63004687  0.96953502     0.11000
H1117       H  0.90722228  0.59568338  0.97939381     0.11000
H1118       H  0.91861368  0.67321507  0.07789416     0.11000
C1119       C  0.52436854  0.74829113  0.79822294    -0.15100
C1120       C  0.98452733  0.72620933  0.80059584     0.07000
C1121       C  0.96645405  0.71880457  0.83964497    -0.15100
C1122       C  0.98816681  0.73107279  0.87615980    -0.15100
C1123       C  0.52810430  0.74973743  0.87386771     0.07000
C1124       C  0.54609140  0.75953707  0.83474121    -0.15100
H1125       H  0.53874361  0.75388487  0.76837847     0.11000
H1126       H  0.93564919  0.70164587  0.84192286     0.11000
H1127       H  0.97386275  0.72286176  0.90607305     0.11000
H1128       H  0.57695671  0.77374275  0.83250856     0.11000
C1129       C  0.83157540  0.58468647  0.83189373    -0.15100
C1130       C  0.83338244  0.61443813  0.80760673     0.07000
C1131       C  0.82394136  0.64047113  0.82575875    -0.15100
C1132       C  0.81467861  0.63773531  0.86826796    -0.15100
C1133       C  0.81447820  0.60873935  0.89291506     0.07000
C1134       C  0.82207686  0.58175212  0.87390604    -0.15100
H1135       H  0.83866627  0.56423977  0.81864343     0.11000
H1136       H  0.82562725  0.66398083  0.80765887     0.11000
H1137       H  0.80887215  0.65887118  0.88204985     0.11000
H1138       H  0.82183043  0.55880022  0.89177912     0.11000
C1139       C  0.69178267  0.76631556  0.80123976    -0.15100
C1140       C  0.69916078  0.80076392  0.78221713     0.07000
C1141       C  0.69899824  0.82953045  0.80686107    -0.15100
C1142       C  0.68977486  0.82307951  0.84934614    -0.15100
C1143       C  0.68031606  0.78770263  0.86750010     0.07000
C1144       C  0.68228855  0.75981296  0.84327872    -0.15100
H1145       H  0.69207582  0.74367169  0.78333929     0.11000
H1146       H  0.70471230  0.85639436  0.79307198     0.11000
H1147       H  0.68800093  0.84487051  0.86739561     0.11000
H1148       H  0.67521082  0.73235771  0.85657137     0.11000
C1149       C  0.58171242  0.73869815  0.62048401    -0.15100
C1150       C  0.60542670  0.73116820  0.64585480     0.07000
C1151       C  0.58909552  0.70057413  0.67417967    -0.15100
C1152       C  0.54931993  0.67975316  0.67951481    -0.15100
C1153       C  0.52550536  0.68899137  0.65601849     0.07000
C1154       C  0.54215417  0.71737881  0.62492745    -0.15100
H1155       H  0.59388936  0.76236042  0.59869364     0.11000
H1156       H  0.60721272  0.69479670  0.69441869     0.11000
H1157       H  0.53752254  0.65842015  0.70391901     0.11000
H1158       H  0.52481377  0.72535437  0.60615342     0.11000
C1159       C  0.78454735  0.97081261  0.66613499    -0.15100
C1160       C  0.80371163  0.94962821  0.66800054     0.07000
C1161       C  0.84382273  0.96965435  0.67159735    -0.15100
C1162       C  0.86403071  0.50987243  0.67396998    -0.15100
C1163       C  0.84456041  0.53085000  0.67214468     0.07000
C1164       C  0.80457830  0.51062236  0.66795644    -0.15100
H1165       H  0.75378860  0.95662691  0.66271426     0.11000
H1166       H  0.85952881  0.95426818  0.67262513     0.11000
H1167       H  0.89476971  0.52448957  0.67762807     0.11000
H1168       H  0.78841992  0.52555086  0.66671773     0.11000
C1169       C  0.81581390  0.76342941  0.71794794    -0.15100
C1170       C  0.82665078  0.79146012  0.68658883     0.07000
C1171       C  0.85961255  0.80113075  0.66302581    -0.15100
C1172       C  0.87912776  0.78065834  0.66818631    -0.15100
C1173       C  0.86558385  0.75015187  0.69653319     0.07000
C1174       C  0.83470891  0.74251931  0.72232670    -0.15100
H1175       H  0.79063615  0.75527411  0.73679215     0.11000
H1176       H  0.86848982  0.82230310  0.63848176     0.11000
H1177       H  0.90274740  0.78647654  0.64766190     0.11000
H1178       H  0.82384817  0.71889513  0.74414566     0.11000
C1179       C  0.73166276  0.89936574  0.46772801    -0.15100
C1180       C  0.69675486  0.87328568  0.44909275     0.07000
C1181       C  0.66763449  0.84537338  0.47397741    -0.15100
C1182       C  0.67417595  0.84252336  0.51639493    -0.15100
C1183       C  0.70995660  0.86736488  0.53413801     0.07000
C1184       C  0.73823313  0.89630925  0.50968649    -0.15100
H1185       H  0.75458499  0.92153564  0.44960135     0.11000
H1186       H  0.64040159  0.82507934  0.46044148     0.11000
H1187       H  0.65207401  0.81971965  0.53471863     0.11000
H1188       H  0.76599317  0.91588008  0.52271786     0.11000
C1189       C  0.98685590  0.83019167  0.34225160    -0.15100
C1190       C  0.96651854  0.78996820  0.34029850     0.07000
C1191       C  0.98737221  0.77062791  0.33649508    -0.15100
C1192       C  0.52713424  0.79053247  0.33488176    -0.15100
C1193       C  0.54771657  0.83064467  0.33646273     0.07000
C1194       C  0.52711057  0.85037941  0.34000296    -0.15100
H1195       H  0.97171302  0.84598126  0.34574471     0.11000
H1196       H  0.97297486  0.73973727  0.33531394     0.11000
H1197       H  0.54174650  0.77419302  0.33166753     0.11000
H1198       H  0.54204397  0.88128151  0.34091973     0.11000
C1199       C  0.81707914  0.84385062  0.34579292    -0.15100
C1200       C  0.80766920  0.81095514  0.32222867     0.07000
C1201       C  0.77971487  0.80003187  0.29070664    -0.15100
C1202       C  0.75875065  0.81887584  0.28604920    -0.15100
C1203       C  0.76623885  0.84978822  0.31173427     0.07000
C1204       C  0.79658250  0.86331641  0.34034285    -0.15100
H1205       H  0.83816852  0.85280048  0.37045596     0.11000
H1206       H  0.77171578  0.77488064  0.27186734     0.11000
H1207       H  0.73524696  0.80799572  0.26404254     0.11000
H1208       H  0.80228606  0.88694282  0.36081075     0.11000
C1209       C  0.75863778  0.56740119  0.38785494    -0.15100
C1210       C  0.74941182  0.59068749  0.36390617     0.07000
C1211       C  0.71708585  0.57395652  0.33794604    -0.15100
C1212       C  0.69623502  0.53416940  0.33310039    -0.15100
C1213       C  0.70717435  0.51078235  0.35482676     0.07000
C1214       C  0.73728816  0.52781670  0.38400547    -0.15100
H1215       H  0.78356898  0.57992608  0.40792865     0.11000
H1216       H  0.70990089  0.59175693  0.31891771     0.11000
H1217       H  0.67343799  0.52202282  0.31027444     0.11000
H1218       H  0.74655644  0.51078947  0.40142416     0.11000
C1219       C  0.84688770  0.68632938  0.20066215    -0.15100
C1220       C  0.81749166  0.68408047  0.22614834     0.07000
C1221       C  0.78184834  0.67390695  0.20816597    -0.15100
C1222       C  0.77485446  0.66377832  0.16638897    -0.15100
C1223       C  0.80341390  0.66395015  0.14139759     0.07000
C1224       C  0.83991280  0.67646493  0.15838416    -0.15100
H1225       H  0.87469943  0.69438917  0.21364880     0.11000
H1226       H  0.75865944  0.67234096  0.22671906     0.11000
H1227       H  0.74656448  0.65448322  0.15396703     0.11000
H1228       H  0.86232417  0.67658578  0.13962854     0.11000
C1229       C  0.77680630  0.72068390  0.50602681    -0.15100
C1230       C  0.76963628  0.73190285  0.46708593     0.07000
C1231       C  0.74856452  0.75099158  0.46495554    -0.15100
C1232       C  0.73837085  0.76236412  0.50161416    -0.15100
C1233       C  0.74812676  0.75369130  0.54062375     0.07000
C1234       C  0.76556831  0.73104861  0.54268895    -0.15100
H1235       H  0.79324912  0.70606306  0.50809312     0.11000
H1236       H  0.74320947  0.76022816  0.43518340     0.11000
H1237       H  0.72500518  0.77998068  0.49955732     0.11000
H1238       H  0.77364911  0.72446819  0.57250429     0.11000
C1239       C  0.86160911  0.65150588  0.53393642    -0.15100
C1240       C  0.88992939  0.68006936  0.55902502     0.07000
C1241       C  0.91692692  0.71463094  0.54045818    -0.15100
C1242       C  0.91415557  0.72161017  0.49850075    -0.15100
C1243       C  0.88467716  0.69402855  0.47394975     0.07000
C1244       C  0.85910523  0.65840989  0.49152443    -0.15100
H1245       H  0.84063818  0.62452303  0.54735046     0.11000
H1246       H  0.93950609  0.73707468  0.55869817     0.11000
H1247       H  0.93431534  0.74919090  0.48556906     0.11000
H1248       H  0.83591811  0.63681465  0.47311380     0.11000
loop_ 
_geom_bond_atom_site_label_1 
_geom_bond_atom_site_label_2 
_geom_bond_distance 
_geom_bond_site_symmetry_2 
_ccdc_geom_bond_type 
O1           C16   1.265       .  A
O1           Al9   1.899       .  S
C2           O12   1.267       .  A
C2            O3   1.262       .  A
C2          C307   1.469       .  S
O3           Al5   1.897       .  S
O4            C6   1.263       .  A
O4           Al5   1.919       .  S
Al5          O13   1.924       .  S
Al5          O15   1.909       .  S
Al5          O14   1.773       .  S
C6           O19   1.257       .  A
C6          C274   1.466       .  S
O7           C17   1.264       .  A
O7           Al9   1.927       .  S
O8           C21   1.268       .  A
O8          Al18   1.948       .  S
Al9          O22   1.868       .  S
Al9          O19   1.892       .  S
Al9          O14   1.776       .  S
O10          C17   1.256       .  A
O10         Al18   1.876       .  S
O11          C20   1.265       .  A
O11         Al18   1.916       .  S
O12         Al18   1.921       .  S
O13          C20   1.267       .  A
O14         Al18   1.780       .  S
O15          C16   1.267       .  A
C16         C284   1.475       .  S
C17         C294   1.464       .  S
C20         C254   1.492       .  S
C21          O22   1.254       .  A
C21         C264   1.482       .  S
O23          C38   1.267       .  A
O23         Al31   1.907       .  S
C24          O34   1.267       .  A
C24          O25   1.263       .  A
C24         C247   1.467       .  S
O25         Al27   1.897       .  S
O26          C28   1.261       .  A
O26         Al27   1.919       .  S
Al27         O35   1.927       .  S
Al27         O37   1.907       .  S
Al27         O36   1.775       .  S
C28          O41   1.256       .  A
C28         C214   1.468       .  S
O29          C39   1.264       .  A
O29         Al31   1.930       .  S
O30          C43   1.266       .  A
O30         Al40   1.941       .  S
Al31         O44   1.866       .  S
Al31         O41   1.896       .  S
Al31         O36   1.776       .  S
O32          C39   1.256       .  A
O32         Al40   1.876       .  S
O33          C42   1.266       .  A
O33         Al40   1.919       .  S
O34         Al40   1.917       .  S
O35          C42   1.267       .  A
O36         Al40   1.782       .  S
O37          C38   1.268       .  A
C38         C204   1.478       .  S
C39         C297   1.466       .  S
C42         C224   1.493       .  S
C43          O44   1.254       .  A
C43         C234   1.480       .  S
O45          C60   1.266       .  A
O45         Al53   1.902       .  S
C46          O56   1.268       .  A
C46          O47   1.264       .  A
C46         C194   1.472       .  S
O47         Al49   1.903       .  S
O48          C50   1.262       .  A
O48         Al49   1.916       .  S
Al49         O57   1.926       .  S
Al49         O59   1.910       .  S
Al49         O58   1.773       .  S
C50          O63   1.256       .  A
C50         C237   1.463       .  S
O51          C61   1.264       .  A
O51         Al53   1.928       .  S
O52          C65   1.269       .  A
O52         Al62   1.955       .  S
Al53         O66   1.864       .  S
Al53         O63   1.892       .  S
Al53         O58   1.774       .  S
O54          C61   1.257       .  A
O54         Al62   1.878       .  S
O55          C64   1.267       .  A
O55         Al62   1.919       .  S
O56         Al62   1.922       .  S
O57          C64   1.267       .  A
O58         Al62   1.780       .  S
O59          C60   1.268       .  A
C60         C304   1.477       .  S
C61         C184   1.465       .  S
C64         C227   1.493       .  S
C65          O66   1.253       .  A
C65         C841   1.485       .  S
O67          C82   1.266       .  A
O67         Al75   1.904   1_554  S
C68          O78   1.266       .  A
C68          O69   1.263       .  A
C68         C207   1.472       .  S
O69         Al71   1.904       .  S
O70          C72   1.262       .  A
O70         Al71   1.915       .  S
Al71         O79   1.927       .  S
Al71         O81   1.913   1_556  S
Al71         O80   1.773       .  S
C72          O85   1.257       .  A
C72         C154   1.465       .  S
O73          C83   1.265       .  A
O73         Al75   1.931       .  S
O74          C87   1.267   1_556  A
O74         Al84   1.946       .  S
Al75         O88   1.870   1_556  S
Al75         O85   1.896       .  S
Al75         O80   1.777       .  S
O76          C83   1.256       .  A
O76         Al84   1.875       .  S
O77          C86   1.266       .  A
O77         Al84   1.918       .  S
O78         Al84   1.920       .  S
O79          C86   1.268       .  A
O80         Al84   1.782       .  S
O81          C82   1.268       .  A
C82         C144   1.479       .  S
C83         C187   1.465       .  S
C86         C164   1.493   1_556  S
C87          O88   1.255       .  A
C87         C798   1.483   1_455  S
O89         C104   1.267       .  A
O89         Al97   1.906   1_556  S
C90         O100   1.266       .  A
C90          O91   1.262       .  A
C90         C287   1.469       .  S
O91         Al93   1.898       .  S
O92          C94   1.262       .  A
O92         Al93   1.917       .  S
Al93        O101   1.924       .  S
Al93        O103   1.910   1_554  S
Al93        O102   1.775       .  S
C94         O107   1.257       .  A
C94         C177   1.466       .  S
O95         C105   1.265       .  A
O95         Al97   1.935       .  S
O96         C109   1.267       .  A
O96        Al106   1.944       .  S
Al97        O110   1.870   1_554  S
Al97        O107   1.895       .  S
Al97        O102   1.778       .  S
O98         C105   1.256       .  A
O98        Al106   1.876       .  S
O99         C108   1.266       .  A
O99        Al106   1.921       .  S
O100       Al106   1.917       .  S
O101        C108   1.267       .  A
O102       Al106   1.782       .  S
O103        C104   1.267       .  A
C104        C197   1.479       .  S
C105        C134   1.466       .  S
C108        C167   1.494       .  S
C109        O110   1.255   1_554  A
C109        C469   1.482   1_544  S
O111        C126   1.266       .  A
O111       Al119   1.902       .  S
C112        O122   1.268       .  A
C112        O113   1.263       .  A
C112        C147   1.474       .  S
O113       Al115   1.899       .  S
O114        C116   1.262       .  A
O114       Al115   1.917       .  S
Al115       O123   1.921       .  S
Al115       O125   1.906       .  S
Al115       O124   1.773       .  S
C116        O129   1.256       .  A
C116        C267   1.464       .  S
O117        C127   1.265       .  A
O117       Al119   1.932       .  S
O118        C131   1.268       .  A
O118       Al128   1.952       .  S
Al119       O132   1.865       .  S
Al119       O129   1.892       .  S
Al119       O124   1.775       .  S
O120        C127   1.256       .  A
O120       Al128   1.875       .  S
O121        C130   1.266       .  A
O121       Al128   1.922       .  S
O122       Al128   1.924       .  S
O123        C130   1.266       .  A
O124       Al128   1.780       .  S
O125        C126   1.267       .  A
C126        C244   1.474       .  S
C127        C137   1.467       .  S
C130        C257   1.492       .  S
C131        O132   1.253       .  A
C131        C589   1.483       .  S
C133        C138   1.397       .  A
C133        C446   1.400       .  A
C133        H139   1.083       .  S
C134        C135   1.405       .  A
C134        C445   1.400   1_545  A
C135        C448   1.397       .  A
C135        H140   1.084       .  S
C136        C137   1.400       .  A
C136        C447   1.397       .  A
C136        H141   1.083       .  S
C137        C138   1.406       .  A
C138        H142   1.084       .  S
C143        C144   1.406       .  A
C143        C148   1.403       .  A
C143        H149   1.083       .  S
C144        C145   1.407       .  A
C145        C146   1.390       .  A
C145        H150   1.083       .  S
C146        C147   1.401       .  A
C146        H151   1.083       .  S
C147        C148   1.407       .  A
C148        H152   1.083       .  S
C153        C154   1.397       .  A
C153        C158   1.395       .  A
C153        H159   1.084       .  S
C154        C155   1.404   1_556  A
C155        C156   1.402       .  A
C155        H160   1.083       .  S
C156        C157   1.406   1_554  A
C156        H161   1.083       .  S
C157        C421   1.482   1_556  S
C157        C158   1.410       .  A
C158        H162   1.083       .  S
C163        C164   1.411       .  A
C163        C168   1.412       .  A
C163        H169   1.083       .  S
C164        C165   1.405       .  A
C165        C166   1.394       .  A
C165        H170   1.083       .  S
C166        C167   1.406       .  A
C166        H171   1.083       .  S
C167        C168   1.410       .  A
C168        H172   1.083       .  S
C173        C174   1.410       .  A
C173        C178   1.395       .  A
C173        H179   1.083       .  S
C174        C711   1.483       .  S
C174        C175   1.406   1_554  A
C175        C176   1.402   1_556  A
C175        H180   1.083       .  S
C176        C177   1.404       .  A
C176        H181   1.083   1_554  S
C177        C178   1.397       .  A
C178        H182   1.084       .  S
C183        C188   1.396       .  A
C183        C808   1.400   1_455  A
C183        H189   1.083       .  S
C184        C185   1.405       .  A
C184        C807   1.400       .  A
C185        C186   1.397       .  A
C185        H190   1.084       .  S
C186        C811   1.401       .  A
C186        H191   1.083       .  S
C187        C188   1.405       .  A
C187        C810   1.401   1_455  A
C188        H192   1.084       .  S
C193        C194   1.400       .  A
C193        C198   1.390       .  A
C193        H199   1.083       .  S
C194        C195   1.407       .  A
C195        C196   1.403       .  A
C195        H200   1.083       .  S
C196        C197   1.406       .  A
C196        H201   1.083       .  S
C197        C198   1.406       .  A
C198        H202   1.083       .  S
C203        C204   1.406       .  A
C203        C208   1.390       .  A
C203        H209   1.083       .  S
C204        C205   1.406       .  A
C205        C206   1.402       .  A
C205        H210   1.083       .  S
C206        C207   1.406       .  A
C206        H211   1.083       .  S
C207        C208   1.401       .  A
C208        H212   1.083       .  S
C213        C214   1.396       .  A
C213        C218   1.394       .  A
C213        H219   1.084       .  S
C214        C215   1.405       .  A
C215        C216   1.404       .  A
C215        H220   1.083       .  S
C216        C217   1.406       .  A
C216        H221   1.083       .  S
C217        C689   1.485   1_455  S
C217        C218   1.412       .  A
C218        H222   1.083       .  S
C223        C224   1.406       .  A
C223        C540   1.395       .  A
C223        H229   1.083       .  S
C224        C225   1.409       .  A
C225        C538   1.411       .  A
C225        H230   1.083       .  S
C226        C227   1.409       .  A
C226        C537   1.411   1_545  A
C226        H231   1.083       .  S
C227        C228   1.406       .  A
C228        C535   1.395   1_545  A
C228        H232   1.083       .  S
C233        C234   1.410       .  A
C233        C238   1.393       .  A
C233        H239   1.083       .  S
C234        C235   1.406       .  A
C235        C236   1.402       .  A
C235        H240   1.083       .  S
C236        C237   1.404       .  A
C236        H241   1.083       .  S
C237        C238   1.396       .  A
C238        H242   1.084       .  S
C243        C244   1.406       .  A
C243        C248   1.388       .  A
C243        H249   1.083       .  S
C244        C245   1.405       .  A
C245        C246   1.400       .  A
C245        H250   1.083       .  S
C246        C247   1.405       .  A
C246        H251   1.083       .  S
C247        C248   1.400       .  A
C248        H252   1.084       .  S
C253        C254   1.410       .  A
C253        C882   1.411       .  A
C253        H259   1.083       .  S
C254        C255   1.405       .  A
C255        C880   1.393       .  A
C255        H260   1.083       .  S
C256        C257   1.406       .  A
C256        C879   1.393   1_455  A
C256        H261   1.083       .  S
C257        C258   1.409       .  A
C258        C877   1.411   1_455  A
C258        H262   1.083       .  S
C263        C264   1.405       .  A
C263        C268   1.402       .  A
C263        H269   1.083       .  S
C264        C265   1.411       .  A
C265        C266   1.394       .  A
C265        H270   1.083       .  S
C266        C267   1.396       .  A
C266        H271   1.084       .  S
C267        C268   1.404       .  A
C268        H272   1.083       .  S
C273        C274   1.396       .  A
C273        C278   1.394       .  A
C273        H279   1.084       .  S
C274        C275   1.404       .  A
C275        C276   1.403       .  A
C275        H280   1.083       .  S
C276        C277   1.405       .  A
C276        H281   1.083       .  S
C277        C443   1.483   1_545  S
C277        C278   1.411       .  A
C278        H282   1.083       .  S
C283        C284   1.405       .  A
C283        C288   1.401       .  A
C283        H289   1.083       .  S
C284        C285   1.406       .  A
C285        C286   1.388       .  A
C285        H290   1.083       .  S
C286        C287   1.400       .  A
C286        H291   1.084       .  S
C287        C288   1.406       .  A
C288        H292   1.083       .  S
C293        C294   1.405       .  A
C293        C298   1.396       .  A
C293        H299   1.084       .  S
C294        C295   1.400       .  A
C295        C296   1.396       .  A
C295        H300   1.084       .  S
C296        C297   1.405       .  A
C296        H301   1.084       .  S
C297        C298   1.401       .  A
C298        H302   1.083       .  S
C303        C304   1.405       .  A
C303        C308   1.401       .  A
C303        H309   1.083       .  S
C304        C305   1.407       .  A
C305        C306   1.390       .  A
C305        H310   1.083       .  S
C306        C307   1.400       .  A
C306        H311   1.083       .  S
C307        C308   1.406       .  A
C308        H312   1.083       .  S
O313        C328   1.265       .  A
O313       Al321   1.899       .  S
C314        O324   1.267       .  A
C314        O315   1.262       .  A
C314        C619   1.469       .  S
O315       Al317   1.897       .  S
O316        C318   1.263       .  A
O316       Al317   1.919       .  S
Al317       O325   1.924       .  S
Al317       O327   1.909       .  S
Al317       O326   1.773       .  S
C318        O331   1.257       .  A
C318        C586   1.466       .  S
O319        C329   1.264       .  A
O319       Al321   1.927       .  S
O320        C333   1.268       .  A
O320       Al330   1.948       .  S
Al321       O334   1.868       .  S
Al321       O331   1.892       .  S
Al321       O326   1.776       .  S
O322        C329   1.256       .  A
O322       Al330   1.876       .  S
O323        C332   1.265       .  A
O323       Al330   1.916       .  S
O324       Al330   1.921       .  S
O325        C332   1.267       .  A
O326       Al330   1.780       .  S
O327        C328   1.267       .  A
C328        C596   1.475       .  S
C329        C606   1.464       .  S
C332        C566   1.492       .  S
C333        O334   1.254       .  A
C333        C576   1.482       .  S
O335        C350   1.267       .  A
O335       Al343   1.907       .  S
C336        O346   1.267       .  A
C336        O337   1.263       .  A
C336        C559   1.467       .  S
O337       Al339   1.897       .  S
O338        C340   1.261       .  A
O338       Al339   1.919       .  S
Al339       O347   1.927       .  S
Al339       O349   1.907       .  S
Al339       O348   1.775       .  S
C340        O353   1.256       .  A
C340        C526   1.468       .  S
O341        C351   1.264       .  A
O341       Al343   1.930       .  S
O342        C355   1.266       .  A
O342       Al352   1.941       .  S
Al343       O356   1.866       .  S
Al343       O353   1.896       .  S
Al343       O348   1.776       .  S
O344        C351   1.256       .  A
O344       Al352   1.876       .  S
O345        C354   1.266       .  A
O345       Al352   1.919       .  S
O346       Al352   1.917       .  S
O347        C354   1.267       .  A
O348       Al352   1.782       .  S
O349        C350   1.268       .  A
C350        C516   1.478       .  S
C351        C609   1.466       .  S
C354        C536   1.493       .  S
C355        O356   1.254       .  A
C355        C546   1.480       .  S
O357        C372   1.266       .  A
O357       Al365   1.902       .  S
C358        O368   1.268       .  A
C358        O359   1.264       .  A
C358        C506   1.472       .  S
O359       Al361   1.903       .  S
O360        C362   1.262       .  A
O360       Al361   1.916       .  S
Al361       O369   1.926       .  S
Al361       O371   1.910       .  S
Al361       O370   1.773       .  S
C362        O375   1.256       .  A
C362        C549   1.463       .  S
O363        C373   1.264       .  A
O363       Al365   1.928       .  S
O364        C377   1.269       .  A
O364       Al374   1.955       .  S
Al365       O378   1.864       .  S
Al365       O375   1.892       .  S
Al365       O370   1.774       .  S
O366        C373   1.257       .  A
O366       Al374   1.878       .  S
O367        C376   1.267       .  A
O367       Al374   1.919       .  S
O368       Al374   1.922       .  S
O369        C376   1.267       .  A
O370       Al374   1.780       .  S
O371        C372   1.268       .  A
C372        C616   1.477       .  S
C373        C496   1.465       .  S
C376        C539   1.493       .  S
C377        O378   1.253       .  A
C377       C1153   1.485       .  S
O379        C394   1.266       .  A
O379       Al387   1.904   1_554  S
C380        O390   1.266       .  A
C380        O381   1.263       .  A
C380        C519   1.472       .  S
O381       Al383   1.904       .  S
O382        C384   1.262       .  A
O382       Al383   1.915       .  S
Al383       O391   1.927       .  S
Al383       O393   1.913   1_556  S
Al383       O392   1.773       .  S
C384        O397   1.257       .  A
C384        C466   1.465       .  S
O385        C395   1.265       .  A
O385       Al387   1.931       .  S
O386        C399   1.267   1_556  A
O386       Al396   1.946       .  S
Al387       O400   1.870   1_556  S
Al387       O397   1.896       .  S
Al387       O392   1.777       .  S
O388        C395   1.256       .  A
O388       Al396   1.875       .  S
O389        C398   1.266       .  A
O389       Al396   1.918       .  S
O390       Al396   1.920       .  S
O391        C398   1.268       .  A
O392       Al396   1.782       .  S
O393        C394   1.268       .  A
C394        C456   1.479       .  S
C395        C499   1.465       .  S
C398        C476   1.493   1_556  S
C399        O400   1.255       .  A
C399       C1110   1.483   1_455  S
O401        C416   1.267       .  A
O401       Al409   1.906   1_556  S
C402        O412   1.266       .  A
C402        O403   1.262       .  A
C402        C599   1.469       .  S
O403       Al405   1.898       .  S
O404        C406   1.262       .  A
O404       Al405   1.917       .  S
Al405       O413   1.924       .  S
Al405       O415   1.910   1_554  S
Al405       O414   1.775       .  S
C406        O419   1.257       .  A
C406        C489   1.466       .  S
O407        C417   1.265       .  A
O407       Al409   1.935       .  S
O408        C421   1.267       .  A
O408       Al418   1.944       .  S
Al409       O422   1.870   1_554  S
Al409       O419   1.895       .  S
Al409       O414   1.778       .  S
O410        C417   1.256       .  A
O410       Al418   1.876       .  S
O411        C420   1.266       .  A
O411       Al418   1.921       .  S
O412       Al418   1.917       .  S
O413        C420   1.267       .  A
O414       Al418   1.782       .  S
O415        C416   1.267       .  A
C416        C509   1.479       .  S
C417        C446   1.466       .  S
C420        C479   1.494       .  S
C421        O422   1.255   1_554  A
O423        C438   1.266       .  A
O423       Al431   1.902       .  S
C424        O434   1.268       .  A
C424        O425   1.263       .  A
C424        C459   1.474       .  S
O425       Al427   1.899       .  S
O426        C428   1.262       .  A
O426       Al427   1.917       .  S
Al427       O435   1.921       .  S
Al427       O437   1.906       .  S
Al427       O436   1.773       .  S
C428        O441   1.256       .  A
C428        C579   1.464       .  S
O429        C439   1.265       .  A
O429       Al431   1.932       .  S
O430        C443   1.268       .  A
O430       Al440   1.952       .  S
Al431       O444   1.865       .  S
Al431       O441   1.892       .  S
Al431       O436   1.775       .  S
O432        C439   1.256       .  A
O432       Al440   1.875       .  S
O433        C442   1.266       .  A
O433       Al440   1.922       .  S
O434       Al440   1.924       .  S
O435        C442   1.266       .  A
O436       Al440   1.780       .  S
O437        C438   1.267       .  A
C438        C556   1.474       .  S
C439        C449   1.467       .  S
C442        C569   1.492       .  S
C443        O444   1.253       .  A
C445        C450   1.397       .  A
C445        H451   1.083       .  S
C446        C447   1.405       .  A
C447        H452   1.084       .  S
C448        C449   1.400   1_545  A
C448        H453   1.083       .  S
C449        C450   1.406       .  A
C450        H454   1.084       .  S
C455        C456   1.406       .  A
C455        C460   1.403       .  A
C455        H461   1.083       .  S
C456        C457   1.407       .  A
C457        C458   1.390       .  A
C457        H462   1.083       .  S
C458        C459   1.401       .  A
C458        H463   1.083       .  S
C459        C460   1.407       .  A
C460        H464   1.083       .  S
C465        C466   1.397       .  A
C465        C470   1.395       .  A
C465        H471   1.084       .  S
C466        C467   1.404   1_556  A
C467        C468   1.402       .  A
C467        H472   1.083       .  S
C468        C469   1.406   1_554  A
C468        H473   1.083       .  S
C469        C470   1.410       .  A
C470        H474   1.083       .  S
C475        C476   1.411       .  A
C475        C480   1.412       .  A
C475        H481   1.083       .  S
C476        C477   1.405       .  A
C477        C478   1.394       .  A
C477        H482   1.083       .  S
C478        C479   1.406       .  A
C478        H483   1.083       .  S
C479        C480   1.410       .  A
C480        H484   1.083       .  S
C485        C486   1.410       .  A
C485        C490   1.395       .  A
C485        H491   1.083       .  S
C486       C1023   1.483       .  S
C486        C487   1.406   1_554  A
C487        C488   1.402   1_556  A
C487        H492   1.083       .  S
C488        C489   1.404       .  A
C488        H493   1.083   1_554  S
C489        C490   1.397       .  A
C490        H494   1.084       .  S
C495       C1120   1.400   1_455  A
C495        C500   1.396       .  A
C495        H501   1.083       .  S
C496       C1119   1.400       .  A
C496        C497   1.405       .  A
C497        C498   1.397       .  A
C497        H502   1.084       .  S
C498       C1123   1.401       .  A
C498        H503   1.083       .  S
C499       C1122   1.401   1_455  A
C499        C500   1.405       .  A
C500        H504   1.084       .  S
C505        C506   1.400       .  A
C505        C510   1.390       .  A
C505        H511   1.083       .  S
C506        C507   1.407       .  A
C507        C508   1.403       .  A
C507        H512   1.083       .  S
C508        C509   1.406       .  A
C508        H513   1.083       .  S
C509        C510   1.406       .  A
C510        H514   1.083       .  S
C515        C516   1.406       .  A
C515        C520   1.390       .  A
C515        H521   1.083       .  S
C516        C517   1.406       .  A
C517        C518   1.402       .  A
C517        H522   1.083       .  S
C518        C519   1.406       .  A
C518        H523   1.083       .  S
C519        C520   1.401       .  A
C520        H524   1.083       .  S
C525        C526   1.396       .  A
C525        C530   1.394       .  A
C525        H531   1.084       .  S
C526        C527   1.405       .  A
C527        C528   1.404       .  A
C527        H532   1.083       .  S
C528        C529   1.406       .  A
C528        H533   1.083       .  S
C529       C1001   1.485   1_455  S
C529        C530   1.412       .  A
C530        H534   1.083       .  S
C535        C536   1.406       .  A
C535        H541   1.083       .  S
C536        C537   1.409       .  A
C537        H542   1.083       .  S
C538        C539   1.409       .  A
C538        H543   1.083       .  S
C539        C540   1.406       .  A
C540        H544   1.083       .  S
C545        C546   1.410       .  A
C545        C550   1.393       .  A
C545        H551   1.083       .  S
C546        C547   1.406       .  A
C547        C548   1.402       .  A
C547        H552   1.083       .  S
C548        C549   1.404       .  A
C548        H553   1.083       .  S
C549        C550   1.396       .  A
C550        H554   1.084       .  S
C555        C556   1.406       .  A
C555        C560   1.388       .  A
C555        H561   1.083       .  S
C556        C557   1.405       .  A
C557        C558   1.400       .  A
C557        H562   1.083       .  S
C558        C559   1.405       .  A
C558        H563   1.083       .  S
C559        C560   1.400       .  A
C560        H564   1.084       .  S
C565        C566   1.410       .  A
C565       C1194   1.411       .  A
C565        H571   1.083       .  S
C566        C567   1.405       .  A
C567       C1192   1.393       .  A
C567        H572   1.083       .  S
C568       C1191   1.393   1_455  A
C568        C569   1.406       .  A
C568        H573   1.083       .  S
C569        C570   1.409       .  A
C570       C1189   1.411   1_455  A
C570        H574   1.083       .  S
C575        C576   1.405       .  A
C575        C580   1.402       .  A
C575        H581   1.083       .  S
C576        C577   1.411       .  A
C577        C578   1.394       .  A
C577        H582   1.083       .  S
C578        C579   1.396       .  A
C578        H583   1.084       .  S
C579        C580   1.404       .  A
C580        H584   1.083       .  S
C585        C586   1.396       .  A
C585        C590   1.394       .  A
C585        H591   1.084       .  S
C586        C587   1.404       .  A
C587        C588   1.403       .  A
C587        H592   1.083       .  S
C588        C589   1.405       .  A
C588        H593   1.083       .  S
C589        C590   1.411       .  A
C590        H594   1.083       .  S
C595        C596   1.405       .  A
C595        C600   1.401       .  A
C595        H601   1.083       .  S
C596        C597   1.406       .  A
C597        C598   1.388       .  A
C597        H602   1.083       .  S
C598        C599   1.400       .  A
C598        H603   1.084       .  S
C599        C600   1.406       .  A
C600        H604   1.083       .  S
C605        C606   1.405       .  A
C605        C610   1.396       .  A
C605        H611   1.084       .  S
C606        C607   1.400       .  A
C607        C608   1.396       .  A
C607        H612   1.084       .  S
C608        C609   1.405       .  A
C608        H613   1.084       .  S
C609        C610   1.401       .  A
C610        H614   1.083       .  S
C615        C616   1.405       .  A
C615        C620   1.401       .  A
C615        H621   1.083       .  S
C616        C617   1.407       .  A
C617        C618   1.390       .  A
C617        H622   1.083       .  S
C618        C619   1.400       .  A
C618        H623   1.083       .  S
C619        C620   1.406       .  A
C620        H624   1.083       .  S
O625        C640   1.265       .  A
O625       Al633   1.899       .  S
C626        O636   1.267       .  A
C626        O627   1.262       .  A
C626        C931   1.469       .  S
O627       Al629   1.897       .  S
O628        C630   1.263       .  A
O628       Al629   1.919       .  S
Al629       O637   1.924       .  S
Al629       O639   1.909       .  S
Al629       O638   1.773       .  S
C630        O643   1.257       .  A
C630        C898   1.466       .  S
O631        C641   1.264       .  A
O631       Al633   1.927       .  S
O632        C645   1.268       .  A
O632       Al642   1.948       .  S
Al633       O646   1.868       .  S
Al633       O643   1.892       .  S
Al633       O638   1.776       .  S
O634        C641   1.256       .  A
O634       Al642   1.876       .  S
O635        C644   1.265       .  A
O635       Al642   1.916       .  S
O636       Al642   1.921       .  S
O637        C644   1.267       .  A
O638       Al642   1.780       .  S
O639        C640   1.267       .  A
C640        C908   1.475       .  S
C641        C918   1.464       .  S
C644        C878   1.492       .  S
C645        O646   1.254       .  A
C645        C888   1.482       .  S
O647        C662   1.267       .  A
O647       Al655   1.907       .  S
C648        O658   1.267       .  A
C648        O649   1.263       .  A
C648        C871   1.467       .  S
O649       Al651   1.897       .  S
O650        C652   1.261       .  A
O650       Al651   1.919       .  S
Al651       O659   1.927       .  S
Al651       O661   1.907       .  S
Al651       O660   1.775       .  S
C652        O665   1.256       .  A
C652        C838   1.468       .  S
O653        C663   1.264       .  A
O653       Al655   1.930       .  S
O654        C667   1.266       .  A
O654       Al664   1.941       .  S
Al655       O668   1.866       .  S
Al655       O665   1.896       .  S
Al655       O660   1.776       .  S
O656        C663   1.256       .  A
O656       Al664   1.876       .  S
O657        C666   1.266       .  A
O657       Al664   1.919       .  S
O658       Al664   1.917       .  S
O659        C666   1.267       .  A
O660       Al664   1.782       .  S
O661        C662   1.268       .  A
C662        C828   1.478       .  S
C663        C921   1.466       .  S
C666        C848   1.493       .  S
C667        O668   1.254       .  A
C667        C858   1.480       .  S
O669        C684   1.266       .  A
O669       Al677   1.902       .  S
C670        O680   1.268       .  A
C670        O671   1.264       .  A
C670        C818   1.472       .  S
O671       Al673   1.903       .  S
O672        C674   1.262       .  A
O672       Al673   1.916       .  S
Al673       O681   1.926       .  S
Al673       O683   1.910       .  S
Al673       O682   1.773       .  S
C674        O687   1.256       .  A
C674        C861   1.463       .  S
O675        C685   1.264       .  A
O675       Al677   1.928       .  S
O676        C689   1.269       .  A
O676       Al686   1.955       .  S
Al677       O690   1.864       .  S
Al677       O687   1.892       .  S
Al677       O682   1.774       .  S
O678        C685   1.257       .  A
O678       Al686   1.878       .  S
O679        C688   1.267       .  A
O679       Al686   1.919       .  S
O680       Al686   1.922       .  S
O681        C688   1.267       .  A
O682       Al686   1.780       .  S
O683        C684   1.268       .  A
C684        C928   1.477       .  S
C685        C808   1.465       .  S
C688        C851   1.493       .  S
C689        O690   1.253       .  A
O691        C706   1.266       .  A
O691       Al699   1.904   1_554  S
C692        O702   1.266       .  A
C692        O693   1.263       .  A
C692        C831   1.472       .  S
O693       Al695   1.904       .  S
O694        C696   1.262       .  A
O694       Al695   1.915       .  S
Al695       O703   1.927       .  S
Al695       O705   1.913   1_556  S
Al695       O704   1.773       .  S
C696        O709   1.257       .  A
C696        C778   1.465       .  S
O697        C707   1.265       .  A
O697       Al699   1.931       .  S
O698        C711   1.267   1_556  A
O698       Al708   1.946       .  S
Al699       O712   1.870   1_556  S
Al699       O709   1.896       .  S
Al699       O704   1.777       .  S
O700        C707   1.256       .  A
O700       Al708   1.875       .  S
O701        C710   1.266       .  A
O701       Al708   1.918       .  S
O702       Al708   1.920       .  S
O703        C710   1.268       .  A
O704       Al708   1.782       .  S
O705        C706   1.268       .  A
C706        C768   1.479       .  S
C707        C811   1.465       .  S
C710        C788   1.493   1_556  S
C711        O712   1.255       .  A
O713        C728   1.267       .  A
O713       Al721   1.906   1_556  S
C714        O724   1.266       .  A
C714        O715   1.262       .  A
C714        C911   1.469       .  S
O715       Al717   1.898       .  S
O716        C718   1.262       .  A
O716       Al717   1.917       .  S
Al717       O725   1.924       .  S
Al717       O727   1.910   1_554  S
Al717       O726   1.775       .  S
C718        O731   1.257       .  A
C718        C801   1.466       .  S
O719        C729   1.265       .  A
O719       Al721   1.935       .  S
O720        C733   1.267       .  A
O720       Al730   1.944       .  S
Al721       O734   1.870   1_554  S
Al721       O731   1.895       .  S
Al721       O726   1.778       .  S
O722        C729   1.256       .  A
O722       Al730   1.876       .  S
O723        C732   1.266       .  A
O723       Al730   1.921       .  S
O724       Al730   1.917       .  S
O725        C732   1.267       .  A
O726       Al730   1.782       .  S
O727        C728   1.267       .  A
C728        C821   1.479       .  S
C729        C758   1.466       .  S
C732        C791   1.494       .  S
C733        O734   1.255   1_554  A
C733       C1093   1.482   1_544  S
O735        C750   1.266       .  A
O735       Al743   1.902       .  S
C736        O746   1.268       .  A
C736        O737   1.263       .  A
C736        C771   1.474       .  S
O737       Al739   1.899       .  S
O738        C740   1.262       .  A
O738       Al739   1.917       .  S
Al739       O747   1.921       .  S
Al739       O749   1.906       .  S
Al739       O748   1.773       .  S
C740        O753   1.256       .  A
C740        C891   1.464       .  S
O741        C751   1.265       .  A
O741       Al743   1.932       .  S
O742        C755   1.268       .  A
O742       Al752   1.952       .  S
Al743       O756   1.865       .  S
Al743       O753   1.892       .  S
Al743       O748   1.775       .  S
O744        C751   1.256       .  A
O744       Al752   1.875       .  S
O745        C754   1.266       .  A
O745       Al752   1.922       .  S
O746       Al752   1.924       .  S
O747        C754   1.266       .  A
O748       Al752   1.780       .  S
O749        C750   1.267       .  A
C750        C868   1.474       .  S
C751        C761   1.467       .  S
C754        C881   1.492       .  S
C755        O756   1.253       .  A
C755       C1213   1.483       .  S
C757       C1070   1.400       .  A
C757        C762   1.397       .  A
C757        H763   1.083       .  S
C758       C1069   1.400   1_545  A
C758        C759   1.405       .  A
C759       C1072   1.397       .  A
C759        H764   1.084       .  S
C760       C1071   1.397       .  A
C760        C761   1.400       .  A
C760        H765   1.083       .  S
C761        C762   1.406       .  A
C762        H766   1.084       .  S
C767        C768   1.406       .  A
C767        C772   1.403       .  A
C767        H773   1.083       .  S
C768        C769   1.407       .  A
C769        C770   1.390       .  A
C769        H774   1.083       .  S
C770        C771   1.401       .  A
C770        H775   1.083       .  S
C771        C772   1.407       .  A
C772        H776   1.083       .  S
C777        C778   1.397       .  A
C777        C782   1.395       .  A
C777        H783   1.084       .  S
C778        C779   1.404   1_556  A
C779        C780   1.402       .  A
C779        H784   1.083       .  S
C780        C781   1.406   1_554  A
C780        H785   1.083       .  S
C781       C1045   1.482   1_556  S
C781        C782   1.410       .  A
C782        H786   1.083       .  S
C787        C788   1.411       .  A
C787        C792   1.412       .  A
C787        H793   1.083       .  S
C788        C789   1.405       .  A
C789        C790   1.394       .  A
C789        H794   1.083       .  S
C790        C791   1.406       .  A
C790        H795   1.083       .  S
C791        C792   1.410       .  A
C792        H796   1.083       .  S
C797        C798   1.410       .  A
C797        C802   1.395       .  A
C797        H803   1.083       .  S
C798        C799   1.406   1_554  A
C799        C800   1.402   1_556  A
C799        H804   1.083       .  S
C800        C801   1.404       .  A
C800        H805   1.083   1_554  S
C801        C802   1.397       .  A
C802        H806   1.084       .  S
C807        C812   1.396       .  A
C807        H813   1.083       .  S
C808        C809   1.405       .  A
C809        C810   1.397       .  A
C809        H814   1.084       .  S
C810        H815   1.083       .  S
C811        C812   1.405       .  A
C812        H816   1.084       .  S
C817        C818   1.400       .  A
C817        C822   1.390       .  A
C817        H823   1.083       .  S
C818        C819   1.407       .  A
C819        C820   1.403       .  A
C819        H824   1.083       .  S
C820        C821   1.406       .  A
C820        H825   1.083       .  S
C821        C822   1.406       .  A
C822        H826   1.083       .  S
C827        C828   1.406       .  A
C827        C832   1.390       .  A
C827        H833   1.083       .  S
C828        C829   1.406       .  A
C829        C830   1.402       .  A
C829        H834   1.083       .  S
C830        C831   1.406       .  A
C830        H835   1.083       .  S
C831        C832   1.401       .  A
C832        H836   1.083       .  S
C837        C838   1.396       .  A
C837        C842   1.394       .  A
C837        H843   1.084       .  S
C838        C839   1.405       .  A
C839        C840   1.404       .  A
C839        H844   1.083       .  S
C840        C841   1.406       .  A
C840        H845   1.083       .  S
C841        C842   1.412       .  A
C842        H846   1.083       .  S
C847        C848   1.406       .  A
C847       C1164   1.395       .  A
C847        H853   1.083       .  S
C848        C849   1.409       .  A
C849       C1162   1.411       .  A
C849        H854   1.083       .  S
C850       C1161   1.411   1_545  A
C850        C851   1.409       .  A
C850        H855   1.083       .  S
C851        C852   1.406       .  A
C852       C1159   1.395   1_545  A
C852        H856   1.083       .  S
C857        C858   1.410       .  A
C857        C862   1.393       .  A
C857        H863   1.083       .  S
C858        C859   1.406       .  A
C859        C860   1.402       .  A
C859        H864   1.083       .  S
C860        C861   1.404       .  A
C860        H865   1.083       .  S
C861        C862   1.396       .  A
C862        H866   1.084       .  S
C867        C868   1.406       .  A
C867        C872   1.388       .  A
C867        H873   1.083       .  S
C868        C869   1.405       .  A
C869        C870   1.400       .  A
C869        H874   1.083       .  S
C870        C871   1.405       .  A
C870        H875   1.083       .  S
C871        C872   1.400       .  A
C872        H876   1.084       .  S
C877        C878   1.410       .  A
C877        H883   1.083       .  S
C878        C879   1.405       .  A
C879        H884   1.083       .  S
C880        C881   1.406       .  A
C880        H885   1.083       .  S
C881        C882   1.409       .  A
C882        H886   1.083       .  S
C887        C888   1.405       .  A
C887        C892   1.402       .  A
C887        H893   1.083       .  S
C888        C889   1.411       .  A
C889        C890   1.394       .  A
C889        H894   1.083       .  S
C890        C891   1.396       .  A
C890        H895   1.084       .  S
C891        C892   1.404       .  A
C892        H896   1.083       .  S
C897        C898   1.396       .  A
C897        C902   1.394       .  A
C897        H903   1.084       .  S
C898        C899   1.404       .  A
C899        C900   1.403       .  A
C899        H904   1.083       .  S
C900        C901   1.405       .  A
C900        H905   1.083       .  S
C901       C1067   1.483   1_545  S
C901        C902   1.411       .  A
C902        H906   1.083       .  S
C907        C908   1.405       .  A
C907        C912   1.401       .  A
C907        H913   1.083       .  S
C908        C909   1.406       .  A
C909        C910   1.388       .  A
C909        H914   1.083       .  S
C910        C911   1.400       .  A
C910        H915   1.084       .  S
C911        C912   1.406       .  A
C912        H916   1.083       .  S
C917        C918   1.405       .  A
C917        C922   1.396       .  A
C917        H923   1.084       .  S
C918        C919   1.400       .  A
C919        C920   1.396       .  A
C919        H924   1.084       .  S
C920        C921   1.405       .  A
C920        H925   1.084       .  S
C921        C922   1.401       .  A
C922        H926   1.083       .  S
C927        C928   1.405       .  A
C927        C932   1.401       .  A
C927        H933   1.083       .  S
C928        C929   1.407       .  A
C929        C930   1.390       .  A
C929        H934   1.083       .  S
C930        C931   1.400       .  A
C930        H935   1.083       .  S
C931        C932   1.406       .  A
C932        H936   1.083       .  S
O937        C952   1.265       .  A
O937       Al945   1.899       .  S
C938        O948   1.267       .  A
C938        O939   1.262       .  A
C938       C1243   1.469       .  S
O939       Al941   1.897       .  S
O940        C942   1.263       .  A
O940       Al941   1.919       .  S
Al941       O949   1.924       .  S
Al941       O951   1.909       .  S
Al941       O950   1.773       .  S
C942        O955   1.257       .  A
C942       C1210   1.466       .  S
O943        C953   1.264       .  A
O943       Al945   1.927       .  S
O944        C957   1.268       .  A
O944       Al954   1.948       .  S
Al945       O958   1.868       .  S
Al945       O955   1.892       .  S
Al945       O950   1.776       .  S
O946        C953   1.256       .  A
O946       Al954   1.876       .  S
O947        C956   1.265       .  A
O947       Al954   1.916       .  S
O948       Al954   1.921       .  S
O949        C956   1.267       .  A
O950       Al954   1.780       .  S
O951        C952   1.267       .  A
C952       C1220   1.475       .  S
C953       C1230   1.464       .  S
C956       C1190   1.492       .  S
C957        O958   1.254       .  A
C957       C1200   1.482       .  S
O959        C974   1.267       .  A
O959       Al967   1.907       .  S
C960        O970   1.267       .  A
C960        O961   1.263       .  A
C960       C1183   1.467       .  S
O961       Al963   1.897       .  S
O962        C964   1.261       .  A
O962       Al963   1.919       .  S
Al963       O971   1.927       .  S
Al963       O973   1.907       .  S
Al963       O972   1.775       .  S
C964        O977   1.256       .  A
C964       C1150   1.468       .  S
O965        C975   1.264       .  A
O965       Al967   1.930       .  S
O966        C979   1.266       .  A
O966       Al976   1.941       .  S
Al967       O980   1.866       .  S
Al967       O977   1.896       .  S
Al967       O972   1.776       .  S
O968        C975   1.256       .  A
O968       Al976   1.876       .  S
O969        C978   1.266       .  A
O969       Al976   1.919       .  S
O970       Al976   1.917       .  S
O971        C978   1.267       .  A
O972       Al976   1.782       .  S
O973        C974   1.268       .  A
C974       C1140   1.478       .  S
C975       C1233   1.466       .  S
C978       C1160   1.493       .  S
C979        O980   1.254       .  A
C979       C1170   1.480       .  S
O981        C996   1.266       .  A
O981       Al989   1.902       .  S
C982        O992   1.268       .  A
C982        O983   1.264       .  A
C982       C1130   1.472       .  S
O983       Al985   1.903       .  S
O984        C986   1.262       .  A
O984       Al985   1.916       .  S
Al985       O993   1.926       .  S
Al985       O995   1.910       .  S
Al985       O994   1.773       .  S
C986        O999   1.256       .  A
C986       C1173   1.463       .  S
O987        C997   1.264       .  A
O987       Al989   1.928       .  S
O988       C1001   1.269       .  A
O988       Al998   1.955       .  S
Al989      O1002   1.864       .  S
Al989       O999   1.892       .  S
Al989       O994   1.774       .  S
O990        C997   1.257       .  A
O990       Al998   1.878       .  S
O991       C1000   1.267       .  A
O991       Al998   1.919       .  S
O992       Al998   1.922       .  S
O993       C1000   1.267       .  A
O994       Al998   1.780       .  S
O995        C996   1.268       .  A
C996       C1240   1.477       .  S
C997       C1120   1.465       .  S
C1000      C1163   1.493       .  S
C1001      O1002   1.253       .  A
O1003      C1018   1.266       .  A
O1003     Al1011   1.904   1_554  S
C1004      O1014   1.266       .  A
C1004      O1005   1.263       .  A
C1004      C1143   1.472       .  S
O1005     Al1007   1.904       .  S
O1006      C1008   1.262       .  A
O1006     Al1007   1.915       .  S
Al1007     O1015   1.927       .  S
Al1007     O1017   1.913   1_556  S
Al1007     O1016   1.773       .  S
C1008      O1021   1.257       .  A
C1008      C1090   1.465       .  S
O1009      C1019   1.265       .  A
O1009     Al1011   1.931       .  S
O1010      C1023   1.267   1_556  A
O1010     Al1020   1.946       .  S
Al1011     O1024   1.870   1_556  S
Al1011     O1021   1.896       .  S
Al1011     O1016   1.777       .  S
O1012      C1019   1.256       .  A
O1012     Al1020   1.875       .  S
O1013      C1022   1.266       .  A
O1013     Al1020   1.918       .  S
O1014     Al1020   1.920       .  S
O1015      C1022   1.268       .  A
O1016     Al1020   1.782       .  S
O1017      C1018   1.268       .  A
C1018      C1080   1.479       .  S
C1019      C1123   1.465       .  S
C1022      C1100   1.493   1_556  S
C1023      O1024   1.255       .  A
O1025      C1040   1.267       .  A
O1025     Al1033   1.906   1_556  S
C1026      O1036   1.266       .  A
C1026      O1027   1.262       .  A
C1026      C1223   1.469       .  S
O1027     Al1029   1.898       .  S
O1028      C1030   1.262       .  A
O1028     Al1029   1.917       .  S
Al1029     O1037   1.924       .  S
Al1029     O1039   1.910   1_554  S
Al1029     O1038   1.775       .  S
C1030      O1043   1.257       .  A
C1030      C1113   1.466       .  S
O1031      C1041   1.265       .  A
O1031     Al1033   1.935       .  S
O1032      C1045   1.267       .  A
O1032     Al1042   1.944       .  S
Al1033     O1046   1.870   1_554  S
Al1033     O1043   1.895       .  S
Al1033     O1038   1.778       .  S
O1034      C1041   1.256       .  A
O1034     Al1042   1.876       .  S
O1035      C1044   1.266       .  A
O1035     Al1042   1.921       .  S
O1036     Al1042   1.917       .  S
O1037      C1044   1.267       .  A
O1038     Al1042   1.782       .  S
O1039      C1040   1.267       .  A
C1040      C1133   1.479       .  S
C1041      C1070   1.466       .  S
C1044      C1103   1.494       .  S
C1045      O1046   1.255   1_554  A
O1047      C1062   1.266       .  A
O1047     Al1055   1.902       .  S
C1048      O1058   1.268       .  A
C1048      O1049   1.263       .  A
C1048      C1083   1.474       .  S
O1049     Al1051   1.899       .  S
O1050      C1052   1.262       .  A
O1050     Al1051   1.917       .  S
Al1051     O1059   1.921       .  S
Al1051     O1061   1.906       .  S
Al1051     O1060   1.773       .  S
C1052      O1065   1.256       .  A
C1052      C1203   1.464       .  S
O1053      C1063   1.265       .  A
O1053     Al1055   1.932       .  S
O1054      C1067   1.268       .  A
O1054     Al1064   1.952       .  S
Al1055     O1068   1.865       .  S
Al1055     O1065   1.892       .  S
Al1055     O1060   1.775       .  S
O1056      C1063   1.256       .  A
O1056     Al1064   1.875       .  S
O1057      C1066   1.266       .  A
O1057     Al1064   1.922       .  S
O1058     Al1064   1.924       .  S
O1059      C1066   1.266       .  A
O1060     Al1064   1.780       .  S
O1061      C1062   1.267       .  A
C1062      C1180   1.474       .  S
C1063      C1073   1.467       .  S
C1066      C1193   1.492       .  S
C1067      O1068   1.253       .  A
C1069      C1074   1.397       .  A
C1069      H1075   1.083       .  S
C1070      C1071   1.405       .  A
C1071      H1076   1.084       .  S
C1072      C1073   1.400   1_545  A
C1072      H1077   1.083       .  S
C1073      C1074   1.406       .  A
C1074      H1078   1.084       .  S
C1079      C1080   1.406       .  A
C1079      C1084   1.403       .  A
C1079      H1085   1.083       .  S
C1080      C1081   1.407       .  A
C1081      C1082   1.390       .  A
C1081      H1086   1.083       .  S
C1082      C1083   1.401       .  A
C1082      H1087   1.083       .  S
C1083      C1084   1.407       .  A
C1084      H1088   1.083       .  S
C1089      C1090   1.397       .  A
C1089      C1094   1.395       .  A
C1089      H1095   1.084       .  S
C1090      C1091   1.404   1_556  A
C1091      C1092   1.402       .  A
C1091      H1096   1.083       .  S
C1092      C1093   1.406   1_554  A
C1092      H1097   1.083       .  S
C1093      C1094   1.410       .  A
C1094      H1098   1.083       .  S
C1099      C1100   1.411       .  A
C1099      C1104   1.412       .  A
C1099      H1105   1.083       .  S
C1100      C1101   1.405       .  A
C1101      C1102   1.394       .  A
C1101      H1106   1.083       .  S
C1102      C1103   1.406       .  A
C1102      H1107   1.083       .  S
C1103      C1104   1.410       .  A
C1104      H1108   1.083       .  S
C1109      C1110   1.410       .  A
C1109      C1114   1.395       .  A
C1109      H1115   1.083       .  S
C1110      C1111   1.406   1_554  A
C1111      C1112   1.402   1_556  A
C1111      H1116   1.083       .  S
C1112      C1113   1.404       .  A
C1112      H1117   1.083   1_554  S
C1113      C1114   1.397       .  A
C1114      H1118   1.084       .  S
C1119      C1124   1.396       .  A
C1119      H1125   1.083       .  S
C1120      C1121   1.405       .  A
C1121      C1122   1.397       .  A
C1121      H1126   1.084       .  S
C1122      H1127   1.083       .  S
C1123      C1124   1.405       .  A
C1124      H1128   1.084       .  S
C1129      C1130   1.400       .  A
C1129      C1134   1.390       .  A
C1129      H1135   1.083       .  S
C1130      C1131   1.407       .  A
C1131      C1132   1.403       .  A
C1131      H1136   1.083       .  S
C1132      C1133   1.406       .  A
C1132      H1137   1.083       .  S
C1133      C1134   1.406       .  A
C1134      H1138   1.083       .  S
C1139      C1140   1.406       .  A
C1139      C1144   1.390       .  A
C1139      H1145   1.083       .  S
C1140      C1141   1.406       .  A
C1141      C1142   1.402       .  A
C1141      H1146   1.083       .  S
C1142      C1143   1.406       .  A
C1142      H1147   1.083       .  S
C1143      C1144   1.401       .  A
C1144      H1148   1.083       .  S
C1149      C1150   1.396       .  A
C1149      C1154   1.394       .  A
C1149      H1155   1.084       .  S
C1150      C1151   1.405       .  A
C1151      C1152   1.404       .  A
C1151      H1156   1.083       .  S
C1152      C1153   1.406       .  A
C1152      H1157   1.083       .  S
C1153      C1154   1.412       .  A
C1154      H1158   1.083       .  S
C1159      C1160   1.406       .  A
C1159      H1165   1.083       .  S
C1160      C1161   1.409       .  A
C1161      H1166   1.083       .  S
C1162      C1163   1.409       .  A
C1162      H1167   1.083       .  S
C1163      C1164   1.406       .  A
C1164      H1168   1.083       .  S
C1169      C1170   1.410       .  A
C1169      C1174   1.393       .  A
C1169      H1175   1.083       .  S
C1170      C1171   1.406       .  A
C1171      C1172   1.402       .  A
C1171      H1176   1.083       .  S
C1172      C1173   1.404       .  A
C1172      H1177   1.083       .  S
C1173      C1174   1.396       .  A
C1174      H1178   1.084       .  S
C1179      C1180   1.406       .  A
C1179      C1184   1.388       .  A
C1179      H1185   1.083       .  S
C1180      C1181   1.405       .  A
C1181      C1182   1.400       .  A
C1181      H1186   1.083       .  S
C1182      C1183   1.405       .  A
C1182      H1187   1.083       .  S
C1183      C1184   1.400       .  A
C1184      H1188   1.084       .  S
C1189      C1190   1.410       .  A
C1189      H1195   1.083       .  S
C1190      C1191   1.405       .  A
C1191      H1196   1.083       .  S
C1192      C1193   1.406       .  A
C1192      H1197   1.083       .  S
C1193      C1194   1.409       .  A
C1194      H1198   1.083       .  S
C1199      C1200   1.405       .  A
C1199      C1204   1.402       .  A
C1199      H1205   1.083       .  S
C1200      C1201   1.411       .  A
C1201      C1202   1.394       .  A
C1201      H1206   1.083       .  S
C1202      C1203   1.396       .  A
C1202      H1207   1.084       .  S
C1203      C1204   1.404       .  A
C1204      H1208   1.083       .  S
C1209      C1210   1.396       .  A
C1209      C1214   1.394       .  A
C1209      H1215   1.084       .  S
C1210      C1211   1.404       .  A
C1211      C1212   1.403       .  A
C1211      H1216   1.083       .  S
C1212      C1213   1.405       .  A
C1212      H1217   1.083       .  S
C1213      C1214   1.411       .  A
C1214      H1218   1.083       .  S
C1219      C1220   1.405       .  A
C1219      C1224   1.401       .  A
C1219      H1225   1.083       .  S
C1220      C1221   1.406       .  A
C1221      C1222   1.388       .  A
C1221      H1226   1.083       .  S
C1222      C1223   1.400       .  A
C1222      H1227   1.084       .  S
C1223      C1224   1.406       .  A
C1224      H1228   1.083       .  S
C1229      C1230   1.405       .  A
C1229      C1234   1.396       .  A
C1229      H1235   1.084       .  S
C1230      C1231   1.400       .  A
C1231      C1232   1.396       .  A
C1231      H1236   1.084       .  S
C1232      C1233   1.405       .  A
C1232      H1237   1.084       .  S
C1233      C1234   1.401       .  A
C1234      H1238   1.083       .  S
C1239      C1240   1.405       .  A
C1239      C1244   1.401       .  A
C1239      H1245   1.083       .  S
C1240      C1241   1.407       .  A
C1241      C1242   1.390       .  A
C1241      H1246   1.083       .  S
C1242      C1243   1.400       .  A
C1242      H1247   1.083       .  S
C1243      C1244   1.406       .  A
C1244      H1248   1.083       .  S
