geometry optimzed in LAMMPS
_audit_creation_date              2020-12-01 
_audit_creation_method            'lammps2cif' 
_symmetry_space_group_name_H-M    'P1' 
_symmetry_Int_Tables_number       1 
_symmetry_cell_setting            triclinic 
loop_ 
_symmetry_equiv_pos_as_xyz 
  x,y,z 
_cell_length_a                    39.24544247 
_cell_length_b                    39.23681863068584 
_cell_length_c                    215.96236984277905 
_cell_angle_alpha                 90.05654229731884 
_cell_angle_beta                  90.05832636479641 
_cell_angle_gamma                 120.03361339013571 
loop_ 
_atom_site_label 
_atom_site_type_symbol 
_atom_site_fract_x 
_atom_site_fract_y 
_atom_site_fract_z 
_atom_site_charge 
Zr1        Zr  0.77653454  0.16951447  0.61518674     2.17500
O2          O  0.78786278  0.21095439  0.60613022    -0.51800
O3          O  0.71030039  0.15564478  0.61701896    -0.75000
O4          O  0.74379226  0.13056680  0.60598245    -0.81800
O5          O  0.82525269  0.25464251  0.62619442    -0.83600
O6          O  0.74860320  0.07522216  0.60583049    -0.79200
O7          O  0.79126059  0.23702874  0.61713892    -0.90800
O8          O  0.68548398  0.11317602  0.62509483    -0.76800
O9          O  0.74419713  0.10147917  0.61787928    -0.86300
O10         O  0.76793281  0.16685425  0.62616115    -0.86000
O11         O  0.81926341  0.14597188  0.61174310    -0.72700
O12         O  0.84092627  0.20707133  0.61961645    -0.84900
Zr13       Zr  0.84438256  0.11282408  0.63014227     2.26400
Zr14       Zr  0.78762773  0.07822745  0.61485791     2.06300
Zr15       Zr  0.83234485  0.20218083  0.63059232     2.10000
Zr16       Zr  0.73571974  0.09886410  0.62875678     1.78800
O17         O  0.89787688  0.25685766  0.63288028    -0.93700
O18         O  0.68218133  0.03346195  0.62606792    -0.41500
O19         O  0.79980663  0.13443000  0.63320997    -0.78100
O20         O  0.77861577  0.07419460  0.62588887    -0.96800
O21         O  0.85231325  0.11532037  0.61916963    -0.90100
O22         O  0.87700230  0.18079381  0.62745929    -0.92900
C23         C  0.68283989  0.13471952  0.62085438     1.00800
C24         C  0.81004778  0.26194367  0.62149109     1.13800
C25         C  0.73681683  0.09778996  0.60352455     1.04500
O26         O  0.73278868  0.01168482  0.61332810    -0.95100
O27         O  0.80172070  0.02768626  0.61850454    -0.90800
O28         O  0.83110578  0.04696587  0.62790755    -0.84000
C29         C  0.81709504  0.02244567  0.62341722     1.11200
O30         O  0.89466400  0.22639662  0.60758822    -0.97100
Zr31       Zr  0.88305274  0.18309429  0.61640810     1.88900
O32         O  0.91422187  0.13435854  0.62849418    -0.73700
O33         O  0.82408301  0.07353567  0.60610311    -0.53000
O34         O  0.90969131  0.16422200  0.60771682    -0.97700
O35         O  0.93671908  0.24962823  0.61852270    -0.54900
O36         O  0.93477288  0.17241244  0.61989386    -0.74200
C37         C  0.94022553  0.15430166  0.62435276     0.98100
O38         O  0.85701012  0.08151178  0.63893084    -0.63000
O39         O  0.80656520  0.22886725  0.63829232    -0.57800
O40         O  0.84463703  0.13171064  0.64100110    -0.94500
O41         O  0.83842409  0.18610786  0.64123893    -0.93000
O42         O  0.71354998  0.11767068  0.63800195    -0.93300
O43         O  0.71913633  0.05527430  0.63764921    -0.92100
C44         C  0.84169177  0.15872942  0.64393599     1.17000
H45         H  0.75277265  0.17885838  0.62744211     0.32900
H46         H  0.76636890  0.04718859  0.62725348     0.43800
H47         H  0.90208035  0.19532146  0.62954970     0.37300
H48         H  0.82176555  0.14790480  0.60729198     0.33800
H49         H  0.65845375  0.03215110  0.62790749     0.25500
H50         H  0.84857810  0.07653081  0.60793322     0.31500
H51         H  0.88914426  0.15503541  0.60446795     0.37400
H52         H  0.73809556  0.13690124  0.64013761     0.31900
H53         H  0.82634870  0.25724857  0.63856636     0.30700
H54         H  0.89947052  0.27954747  0.63061989     0.32400
H55         H  0.94529773  0.24895114  0.62280858     0.31400
H56         H  0.74428677  0.05687187  0.63883216     0.35400
H57         H  0.83229701  0.05630320  0.63962224     0.28100
H58         H  0.76137740  0.20336997  0.60450915     0.32300
H59         H  0.92283931  0.23774324  0.60653308     0.35200
H60         H  0.78322506  0.22789407  0.63635211     0.27800
H61         H  0.87621515  0.07395816  0.63745972     0.40700
H62         H  0.71946814  0.00407991  0.61739710     0.30700
H63         H  0.67856116  0.03443633  0.62154732     0.38400
H64         H  0.92397268  0.26589442  0.61878927     0.30200
H65         H  0.80893189  0.04556013  0.60482483     0.30300
H66         H  0.79958521  0.20154894  0.60298003     0.30500
Zr67       Zr  0.81205913  0.19958781  0.70368648     2.17500
O68         O  0.81183277  0.24571634  0.69613497    -0.51800
O69         O  0.74097937  0.17415141  0.70456657    -0.75000
O70         O  0.80241881  0.17489659  0.69297324    -0.81800
O71         O  0.85135585  0.28352011  0.71558093    -0.83600
O72         O  0.80715040  0.11960842  0.69295826    -0.79200
O73         O  0.82203694  0.26422805  0.70614816    -0.90800
O74         O  0.71814016  0.13142387  0.71261131    -0.76800
O75         O  0.77976556  0.13164167  0.70636656    -0.86300
O76         O  0.80259202  0.19644372  0.71464646    -0.86000
O77         O  0.85881518  0.17991112  0.70062146    -0.72700
O78         O  0.87660673  0.23800626  0.70829256    -0.84900
Zr79       Zr  0.87873239  0.14269601  0.71880106     2.26400
Zr80       Zr  0.82558867  0.11143712  0.70334288     2.06300
Zr81       Zr  0.86643002  0.23354042  0.71926488     2.10000
Zr82       Zr  0.77200791  0.12883639  0.71735971     1.78800
O83         O  0.92345735  0.29919403  0.72031501    -0.93700
O84         O  0.72330330  0.05941489  0.71604266    -0.41500
O85         O  0.83526111  0.16556992  0.72214740    -0.78100
O86         O  0.81452506  0.10489089  0.71428883    -0.96800
O87         O  0.88930147  0.14744977  0.70792712    -0.90100
O88         O  0.91066484  0.21108190  0.71634056    -0.92900
C89         C  0.71322617  0.15003544  0.70816472     1.00800
C90         C  0.83587562  0.28871588  0.71066682     1.13800
C91         C  0.80234316  0.14580595  0.69018425     1.04500
O92         O  0.76191667  0.05237886  0.70181516    -0.95100
O93         O  0.83931849  0.06150071  0.70708960    -0.90800
O94         O  0.87096351  0.07852846  0.71635469    -0.84000
C95         C  0.85498821  0.05463032  0.71179220     1.11200
O96         O  0.94228944  0.26902172  0.69810242    -0.97100
Zr97       Zr  0.92148282  0.21555721  0.70554547     1.88900
O98         O  0.94499713  0.15560293  0.71695864    -0.73700
O99         O  0.85531187  0.08841340  0.69573247    -0.53000
O100        O  0.94318688  0.20099508  0.69583651    -0.97700
O101        O  0.97905306  0.27569668  0.70923054    -0.54900
O102        O  0.96746850  0.19352742  0.70833914    -0.74200
C103        C  0.97069467  0.17301713  0.71269222     0.98100
O104        O  0.86229688  0.10040092  0.72789583    -0.63000
O105        O  0.83147131  0.24025208  0.72806793    -0.57800
O106        O  0.90983996  0.17971960  0.72810447    -0.94500
O107        O  0.90253754  0.23368530  0.72853678    -0.93000
O108        O  0.74183405  0.15106767  0.72502832    -0.93300
O109        O  0.75903939  0.09346685  0.72713416    -0.92100
C110        C  0.91498241  0.21133242  0.73073451     1.17000
H111        H  0.78608384  0.20713821  0.71579108     0.32900
H112        H  0.80251991  0.07773039  0.71553018     0.43800
H113        H  0.93524860  0.22534535  0.71843347     0.37300
H114        H  0.86523513  0.18409576  0.69629643     0.33800
H115        H  0.69926984  0.05625683  0.71807027     0.25500
H116        H  0.83317945  0.06916962  0.69313604     0.31500
H117        H  0.93791954  0.17368464  0.69631514     0.37400
H118        H  0.76138608  0.16254173  0.72841948     0.31900
H119        H  0.84877363  0.26747382  0.72957179     0.30700
H120        H  0.91727447  0.31097007  0.72388977     0.32400
H121        H  0.99358550  0.26696740  0.71193962     0.31400
H122        H  0.77840706  0.08434213  0.72727759     0.35400
H123        H  0.85241348  0.11197684  0.73099338     0.28100
H124        H  0.78697273  0.23090095  0.69377289     0.32300
H125        H  0.97000657  0.27740747  0.69709758     0.35200
H126        H  0.80851840  0.24065251  0.72624673     0.27800
H127        H  0.83857773  0.07537217  0.72670984     0.40700
H128        H  0.76826362  0.03183628  0.70060811     0.30700
H129        H  0.71693653  0.05647669  0.71156857     0.38400
H130        H  0.96850642  0.28792987  0.71207785     0.30200
H131        H  0.87077658  0.11123291  0.69298394     0.30300
H132        H  0.83300566  0.25082963  0.69314979     0.30500
Zr133      Zr  0.82081166  0.59780113  0.61474659     2.17500
O134        O  0.77902933  0.57091676  0.60562214    -0.51800
O135        O  0.83083498  0.54303216  0.61669869    -0.75000
O136        O  0.86012062  0.60285070  0.60564998    -0.81800
O137        O  0.73447938  0.56208100  0.62550619    -0.83600
O138        O  0.91596594  0.66270618  0.60568450    -0.79200
O139        O  0.75341679  0.54594533  0.61653280    -0.90800
O140        O  0.87484541  0.56106275  0.62457252    -0.76800
O141        O  0.88843957  0.63183403  0.61759895    -0.86300
O142        O  0.82206457  0.59098846  0.62571452    -0.86000
O143        O  0.84590347  0.66445740  0.61145066    -0.72700
O144        O  0.78451568  0.62584074  0.61917557    -0.84900
Zr145      Zr  0.87846825  0.72140178  0.62996881     2.26400
Zr146      Zr  0.91331741  0.69888409  0.61470753     2.06300
Zr147      Zr  0.78758162  0.62078821  0.63016136     2.10000
Zr148      Zr  0.88977787  0.62515041  0.62846508     1.78800
O149        O  0.73217598  0.63121056  0.63194099    -0.93700
O150        O  0.95393540  0.63360537  0.62585723    -0.41500
O151        O  0.85526868  0.65470453  0.63295748    -0.78100
O152        O  0.91611739  0.69323990  0.62574910    -0.96800
O153        O  0.87738419  0.72774475  0.61901276    -0.90100
O154        O  0.81076124  0.68734225  0.62712157    -0.92900
C155        C  0.85209737  0.53646704  0.62046476     1.00800
C156        C  0.72788764  0.54015512  0.62072683     1.13800
C157        C  0.89333927  0.62850907  0.60330473     1.04500
O158        O  0.97859249  0.70619021  0.61409502    -0.95100
O159        O  0.96324470  0.76417557  0.61813622    -0.90800
O160        O  0.94460245  0.77321430  0.62765137    -0.84000
C161        C  0.96869008  0.78435416  0.62310520     1.11200
O162        O  0.76949117  0.66402903  0.60685122    -0.97100
Zr163      Zr  0.80996587  0.69235496  0.61607174     1.88900
O164        O  0.85622490  0.76942088  0.62858324    -0.73700
O165        O  0.92086763  0.73930235  0.60568908    -0.53000
O166        O  0.83522323  0.74035736  0.60769760    -0.97700
O167        O  0.74275961  0.67816545  0.61783605    -0.54900
O168        O  0.81892187  0.75355001  0.61989301    -0.74200
C169        C  0.83613609  0.77596105  0.62452264     0.98100
O170        O  0.91112254  0.76579390  0.63868130    -0.63000
O171        O  0.76048098  0.56822846  0.63783345    -0.57800
O172        O  0.85934714  0.70217365  0.64077112    -0.94500
O173        O  0.80298879  0.64302148  0.64087678    -0.93000
O174        O  0.86575045  0.58029751  0.63723949    -0.93300
O175        O  0.93415106  0.64966691  0.63732180    -0.92100
C176        C  0.83131779  0.67275777  0.64364471     1.17000
H177        H  0.80940964  0.56368011  0.62694441     0.32900
H178        H  0.94299086  0.70752786  0.62718260     0.43800
H179        H  0.79617768  0.69790818  0.62917862     0.37300
H180        H  0.84436750  0.66547382  0.60699759     0.33800
H181        H  0.95473291  0.61169375  0.62799393     0.25500
H182        H  0.92205797  0.76331731  0.60739040     0.31500
H183        H  0.81770318  0.75174567  0.60757261     0.37400
H184        H  0.84193165  0.58072052  0.63862984     0.31900
H185        H  0.73223142  0.56008309  0.63811450     0.30700
H186        H  0.73367552  0.63773198  0.63639857     0.32400
H187        H  0.74411593  0.69305500  0.62162069     0.31400
H188        H  0.92694658  0.66737919  0.63950104     0.35400
H189        H  0.93640735  0.76633542  0.63929612     0.28100
H190        H  0.78689255  0.55308686  0.60365710     0.32300
H191        H  0.75938277  0.68187451  0.60577175     0.35200
H192        H  0.76091948  0.54568675  0.63585239     0.27800
H193        H  0.91845057  0.79249000  0.63720449     0.40700
H194        H  0.98631490  0.70587488  0.61845068     0.30700
H195        H  0.95207088  0.62678273  0.62140712     0.38400
H196        H  0.72828596  0.65022963  0.61913407     0.30200
H197        H  0.94788982  0.74823708  0.60419557     0.30300
H198        H  0.78809586  0.59339322  0.60273532     0.30500
Zr199      Zr  0.79169191  0.60005346  0.70321670     2.17500
O200        O  0.74112975  0.56435916  0.69540524    -0.51800
O201        O  0.81173240  0.55027195  0.70404636    -0.75000
O202        O  0.81856348  0.61461667  0.69263057    -0.81800
O203        O  0.71119067  0.55348797  0.71553454    -0.83600
O204        O  0.87104640  0.67682262  0.69263606    -0.79200
O205        O  0.72976368  0.54311230  0.70606611    -0.90800
O206        O  0.85382117  0.56790610  0.71218841    -0.76800
O207        O  0.86012745  0.63611368  0.70565088    -0.86300
O208        O  0.79659381  0.59265065  0.71408795    -0.86000
O209        O  0.81130696  0.66674650  0.70046804    -0.72700
O210        O  0.75391857  0.62504580  0.70827583    -0.84900
Zr211      Zr  0.84921594  0.72094050  0.71902216     2.26400
Zr212      Zr  0.87979373  0.70275555  0.70310524     2.06300
Zr213      Zr  0.76016333  0.61836931  0.71916099     2.10000
Zr214      Zr  0.86447613  0.62908857  0.71654528     1.78800
O215        O  0.69386095  0.60745077  0.72055390    -0.93700
O216        O  0.93007361  0.64098577  0.71401898    -0.41500
O217        O  0.82835011  0.65442938  0.72192924    -0.78100
O218        O  0.88692767  0.69607297  0.71397172    -0.96800
O219        O  0.84359752  0.72842114  0.70819600    -0.90100
O220        O  0.78095082  0.68491290  0.71651521    -0.92900
C221        C  0.83377846  0.54436556  0.70779692     1.00800
C222        C  0.70618385  0.53237588  0.71069575     1.13800
C223        C  0.84637824  0.64487578  0.68985638     1.04500
O224        O  0.94008507  0.70116403  0.70114139    -0.95100
O225        O  0.92900981  0.76615035  0.70714687    -0.90800
O226        O  0.91204271  0.77856078  0.71658824    -0.84000
C227        C  0.93563081  0.78775496  0.71197131     1.11200
O228        O  0.72554554  0.66264491  0.69768771    -0.97100
Zr229      Zr  0.77566507  0.69221337  0.70574537     1.88900
O230        O  0.83497093  0.77389152  0.71777762    -0.73700
O231        O  0.89844933  0.75666334  0.69582728    -0.53000
O232        O  0.79415450  0.73427360  0.69662217    -0.97700
O233        O  0.71200869  0.68278268  0.70897416    -0.54900
O234        O  0.79423736  0.75742468  0.70946327    -0.74200
C235        C  0.81546989  0.78130409  0.71375894     0.98100
O236        O  0.89321875  0.74487623  0.72796380    -0.63000
O237        O  0.75660342  0.57753578  0.72788876    -0.57800
O238        O  0.81289156  0.71273078  0.72855975    -0.94500
O239        O  0.75834265  0.65190417  0.72852283    -0.93000
O240        O  0.84269801  0.58362752  0.72525126    -0.93300
O241        O  0.91281886  0.65618478  0.72486560    -0.92100
C242        C  0.78061202  0.68584959  0.73097855     1.17000
H243        H  0.78604006  0.56531634  0.71517924     0.32900
H244        H  0.91426581  0.71135617  0.71518393     0.43800
H245        H  0.76629148  0.69472463  0.71874059     0.37300
H246        H  0.80683613  0.66903115  0.69613188     0.33800
H247        H  0.92681413  0.62652186  0.71010260     0.25500
H248        H  0.92134485  0.75872927  0.69356558     0.31500
H249        H  0.82098349  0.75621368  0.69753330     0.37400
H250        H  0.85714055  0.56906999  0.72481610     0.31900
H251        H  0.72923996  0.56598161  0.72940807     0.30700
H252        H  0.68387445  0.59093053  0.72431384     0.32400
H253        H  0.71765688  0.70064901  0.71254949     0.31400
H254        H  0.90821588  0.67629894  0.72683910     0.35400
H255        H  0.88186897  0.72292560  0.73097408     0.28100
H256        H  0.75105686  0.55031201  0.69282704     0.32300
H257        H  0.71869671  0.68295074  0.69656247     0.35200
H258        H  0.75777772  0.55510160  0.72602051     0.27800
H259        H  0.91774295  0.74588246  0.72657264     0.40700
H260        H  0.96172109  0.72804510  0.70211000     0.30700
H261        H  0.94514734  0.66908489  0.71282355     0.38400
H262        H  0.69813599  0.65601212  0.71077555     0.30200
H263        H  0.87697959  0.74663929  0.69272520     0.30300
H264        H  0.74164469  0.58485581  0.69267027     0.30500
Zr265      Zr  0.39319351  0.21012765  0.61489519     2.17500
O266        O  0.42201781  0.19606260  0.60594233    -0.51800
O267        O  0.44887981  0.27531804  0.61645205    -0.75000
O268        O  0.38640151  0.24073987  0.60557245    -0.81800
O269        O  0.42630538  0.15748442  0.62578062    -0.83600
O270        O  0.32813742  0.24004972  0.60553622    -0.79200
O271        O  0.44292447  0.19159359  0.61673942    -0.90800
O272        O  0.43293032  0.30240985  0.62441979    -0.76800
O273        O  0.36067246  0.24559044  0.61755834    -0.86300
O274        O  0.40098681  0.21995096  0.62580958    -0.86000
O275        O  0.32595347  0.17006096  0.61167832    -0.72700
O276        O  0.36368860  0.14579886  0.61934332    -0.84900
Zr277      Zr  0.26980777  0.14882217  0.63023834     2.26400
Zr278      Zr  0.29286421  0.20469267  0.61484018     2.06300
Zr279      Zr  0.36935134  0.15567182  0.63029617     2.10000
Zr280      Zr  0.36813332  0.25520199  0.62838156     1.78800
O281        O  0.35763289  0.09017822  0.63281165    -0.93700
O282        O  0.36185310  0.31144445  0.62522597    -0.41500
O283        O  0.33725528  0.19134223  0.63294057    -0.78100
O284        O  0.29940518  0.21443129  0.62584898    -0.96800
O285        O  0.26271367  0.14026368  0.61927787    -0.90100
O286        O  0.30211705  0.11319097  0.62742572    -0.92900
C287        C  0.45654524  0.30362735  0.62019233     1.00800
C288        C  0.44802242  0.17160537  0.62097662     1.13800
C289        C  0.36153409  0.24892505  0.60311264     1.04500
O290        O  0.28773309  0.26403270  0.61463469    -0.95100
O291        O  0.22720503  0.18890343  0.61818222    -0.90800
O292        O  0.21893902  0.16476560  0.62794198    -0.84000
C293        C  0.20745666  0.17617875  0.62322912     1.11200
O294        O  0.32047915  0.08753217  0.60737470    -0.97100
Zr295      Zr  0.29653623  0.10662877  0.61637937     1.88900
O296        O  0.21966899  0.07879333  0.62893611    -0.73700
O297        O  0.25100856  0.17443352  0.60583651    -0.53000
O298        O  0.25324361  0.08560212  0.60737153    -0.97700
O299        O  0.30397622  0.04985546  0.61866883    -0.54900
O300        O  0.23256429  0.05921837  0.61981426    -0.74200
C301        C  0.21112241  0.05339038  0.62456397     0.98100
O302        O  0.22719039  0.13873964  0.63910559    -0.63000
O303        O  0.42232991  0.18045650  0.63792609    -0.57800
O304        O  0.29070546  0.15164895  0.64108646    -0.94500
O305        O  0.34899324  0.15279623  0.64093819    -0.93000
O306        O  0.40907332  0.27439085  0.63764696    -0.93300
O307        O  0.34508812  0.27964701  0.63682547    -0.92100
C308        C  0.32058150  0.15303902  0.64382809     1.17000
H309        H  0.42840490  0.23412904  0.62701423     0.32900
H310        H  0.28579046  0.22785594  0.62722461     0.43800
H311        H  0.29103613  0.08810392  0.62951295     0.37300
H312        H  0.32453530  0.16690601  0.60724018     0.33800
H313        H  0.38531934  0.33462074  0.62699144     0.25500
H314        H  0.23010890  0.14839461  0.60731060     0.31500
H315        H  0.23818971  0.05648658  0.60759690     0.37400
H316        H  0.41120073  0.25098048  0.63870829     0.31900
H317        H  0.43025395  0.16017462  0.63816939     0.30700
H318        H  0.36131009  0.09067093  0.63735386     0.32400
H319        H  0.28285011  0.03388589  0.62166308     0.31400
H320        H  0.33239619  0.25733178  0.63975806     0.35400
H321        H  0.22847190  0.16431123  0.63981381     0.28100
H322        H  0.44130303  0.22207412  0.60422044     0.32300
H323        H  0.34907774  0.09915579  0.60811334     0.35200
H324        H  0.44490468  0.20340345  0.63595456     0.27800
H325        H  0.19998730  0.12075864  0.63765637     0.40700
H326        H  0.26439832  0.25716179  0.61202430     0.30700
H327        H  0.36656485  0.31378782  0.62070325     0.38400
H328        H  0.32858039  0.06066269  0.62111388     0.30200
H329        H  0.23746714  0.18971015  0.60518434     0.30300
H330        H  0.40067818  0.18411983  0.60282151     0.30500
Zr331      Zr  0.39544409  0.17635312  0.70337399     2.17500
O332        O  0.43981958  0.17785775  0.69531040    -0.51800
O333        O  0.44709869  0.24511982  0.70477810    -0.75000
O334        O  0.37970809  0.18852307  0.69285612    -0.81800
O335        O  0.43267150  0.12622734  0.71462729    -0.83600
O336        O  0.32223655  0.18906086  0.69298725    -0.79200
O337        O  0.44401200  0.15651223  0.70527576    -0.90800
O338        O  0.43012127  0.26925397  0.71300129    -0.76800
O339        O  0.36246358  0.21114965  0.70618087    -0.86300
O340        O  0.40317743  0.18573897  0.71433246    -0.86000
O341        O  0.32809933  0.13246968  0.70038817    -0.72700
O342        O  0.36642210  0.11170099  0.70795196    -0.84900
Zr343      Zr  0.27271738  0.11476769  0.71889459     2.26400
Zr344      Zr  0.29522938  0.16764502  0.70327603     2.06300
Zr345      Zr  0.37321397  0.12159667  0.71894316     2.10000
Zr346      Zr  0.36888806  0.21897591  0.71717446     1.78800
O347        O  0.37771835  0.06264405  0.72068253    -0.93700
O348        O  0.35725307  0.27357535  0.71535042    -0.41500
O349        O  0.33980806  0.15587878  0.72203681    -0.78100
O350        O  0.30154581  0.17888191  0.71426430    -0.96800
O351        O  0.26541679  0.10430875  0.70800205    -0.90100
O352        O  0.30575983  0.07980103  0.71616016    -0.92900
C353        C  0.45350177  0.27277361  0.70861633     1.00800
C354        C  0.45265435  0.13982412  0.70962101     1.13800
C355        C  0.35195463  0.19131922  0.69014127     1.04500
O356        O  0.29465485  0.22851755  0.70135569    -0.95100
O357        O  0.23213396  0.15653896  0.70682061    -0.90800
O358        O  0.21848982  0.12577041  0.71615975    -0.84000
C359        C  0.21013496  0.14133796  0.71157926     1.11200
O360        O  0.32133808  0.04710337  0.69659664    -0.97100
Zr361      Zr  0.29844526  0.06973173  0.70532237     1.88900
O362        O  0.21797681  0.04909105  0.71730580    -0.73700
O363        O  0.24472634  0.13060046  0.69553009    -0.53000
O364        O  0.25451067  0.04692751  0.69639054    -0.97700
O365        O  0.30892956  0.01586880  0.70834817    -0.54900
O366        O  0.23256244  0.02363220  0.70894664    -0.74200
C367        C  0.20929920  0.02201376  0.71326181     0.98100
O368        O  0.24882274  0.13294907  0.72804020    -0.63000
O369        O  0.42021539  0.15734899  0.72719497    -0.57800
O370        O  0.27789799  0.08355884  0.72836982    -0.94500
O371        O  0.33822225  0.08857727  0.72841696    -0.93000
O372        O  0.41344856  0.23680272  0.72598866    -0.93300
O373        O  0.34845648  0.24161423  0.72619043    -0.92100
C374        C  0.30424831  0.07740389  0.73083514     1.17000
H375        H  0.43069791  0.20089044  0.71545264     0.32900
H376        H  0.28757853  0.19214134  0.71554449     0.43800
H377        H  0.29457087  0.05485661  0.71827445     0.37300
H378        H  0.32523337  0.12627951  0.69602785     0.33800
H379        H  0.38146173  0.29720936  0.71682441     0.25500
H380        H  0.24036274  0.15046530  0.69340969     0.31500
H381        H  0.23431911  0.05429516  0.69730355     0.37400
H382        H  0.43186304  0.26541808  0.72554154     0.31900
H383        H  0.42791928  0.13854118  0.72880282     0.30700
H384        H  0.39803488  0.07011080  0.72393785     0.32400
H385        H  0.29028061  0.00235998  0.71178094     0.31400
H386        H  0.31961703  0.22383324  0.72642607     0.35400
H387        H  0.27134900  0.14432691  0.73095665     0.28100
H388        H  0.44996883  0.20337054  0.69314787     0.32300
H389        H  0.30220365  0.01861295  0.69617478     0.35200
H390        H  0.44408385  0.17775076  0.72507082     0.27800
H391        H  0.24638091  0.15585609  0.72675948     0.40700
H392        H  0.28624601  0.23463201  0.70532362     0.30700
H393        H  0.35805168  0.27647092  0.71079160     0.38400
H394        H  0.33523506  0.02888451  0.71032243     0.30200
H395        H  0.25754679  0.12240315  0.69238443     0.30300
H396        H  0.42304593  0.15754595  0.69223927     0.30500
Zr397      Zr  0.21497603  0.38693618  0.88499406     2.17500
O398        O  0.20132991  0.41381700  0.89424127    -0.51800
O399        O  0.28103694  0.44061180  0.88311417    -0.75000
O400        O  0.24670729  0.37914927  0.89416555    -0.81800
O401        O  0.16909482  0.42621015  0.87415572    -0.83600
O402        O  0.24148799  0.31881105  0.89401277    -0.79200
O403        O  0.20008504  0.43964838  0.88345902    -0.90800
O404        O  0.30677047  0.42250890  0.87521239    -0.76800
O405        O  0.24722471  0.35138204  0.88225335    -0.86300
O406        O  0.22488110  0.39431133  0.87406529    -0.86000
O407        O  0.17110175  0.32001814  0.88798574    -0.72700
O408        O  0.15113621  0.36068325  0.88042412    -0.84900
Zr409      Zr  0.14821086  0.26434318  0.86934623     2.26400
Zr410      Zr  0.20302816  0.28424942  0.88485027     2.06300
Zr411      Zr  0.16104707  0.36661358  0.86949529     2.10000
Zr412      Zr  0.25691712  0.35835364  0.87141355     1.78800
O413        O  0.09562901  0.35718093  0.86764104    -0.93700
O414        O  0.30909742  0.34576278  0.87467872    -0.41500
O415        O  0.19355427  0.33135241  0.86673706    -0.78100
O416        O  0.21299254  0.29028407  0.87385699    -0.96800
O417        O  0.13904461  0.25729807  0.88026327    -0.90100
O418        O  0.11568321  0.29965124  0.87210920    -0.92900
C419        C  0.30893042  0.44702278  0.87935971     1.00800
C420        C  0.18287460  0.44726542  0.87905178     1.13800
C421        C  0.25328732  0.35278996  0.89647979     1.04500
O422        O  0.25994749  0.27507650  0.88427445    -0.95100
O423        O  0.18323186  0.21761594  0.88162806    -0.90800
O424        O  0.15885079  0.21002651  0.87186804    -0.84000
C425        C  0.16961607  0.19791105  0.87658960     1.11200
O426        O  0.08695942  0.31520319  0.89215458    -0.97100
Zr427      Zr  0.10801782  0.29363796  0.88310471     1.88900
O428        O  0.07746018  0.21724645  0.87038151    -0.73700
O429        O  0.17314705  0.24272615  0.89389037    -0.53000
O430        O  0.08576031  0.24712670  0.89166701    -0.97700
O431        O  0.05819914  0.31188238  0.88099405    -0.54900
O432        O  0.05580049  0.23288506  0.87905972    -0.74200
C433        C  0.05063397  0.21068515  0.87439797     0.98100
O434        O  0.13938968  0.22231724  0.86043349    -0.63000
O435        O  0.18660009  0.42002257  0.86195392    -0.57800
O436        O  0.15061920  0.28603554  0.85860406    -0.94500
O437        O  0.15527310  0.34604093  0.85877953    -0.93000
O438        O  0.27912341  0.39973086  0.86222485    -0.93300
O439        O  0.27827100  0.33272763  0.86290621    -0.92100
C440        C  0.15337767  0.31654387  0.85588388     1.17000
H441        H  0.24025438  0.42162444  0.87286726     0.32900
H442        H  0.22498985  0.27526151  0.87249176     0.43800
H443        H  0.09100355  0.28992221  0.86992339     0.37300
H444        H  0.16774322  0.31855032  0.89242088     0.33800
H445        H  0.33259203  0.36489638  0.87232755     0.25500
H446        H  0.19390174  0.23801770  0.89557933     0.31500
H447        H  0.09242585  0.22685432  0.89043095     0.37400
H448        H  0.25972003  0.40858936  0.86166185     0.31900
H449        H  0.16821506  0.43039453  0.86205522     0.30700
H450        H  0.09706202  0.38176108  0.86911831     0.32400
H451        H  0.04795527  0.30131514  0.87681480     0.31400
H452        H  0.25358265  0.31369244  0.86078357     0.35400
H453        H  0.16406116  0.22135001  0.86009591     0.28100
H454        H  0.22738771  0.43280290  0.89599862     0.32300
H455        H  0.11063671  0.33999857  0.89343462     0.35200
H456        H  0.21137781  0.44123372  0.86376972     0.27800
H457        H  0.11903639  0.19539344  0.86166313     0.40700
H458        H  0.28021003  0.29579475  0.88695521     0.30700
H459        H  0.31501331  0.35521669  0.87901220     0.38400
H460        H  0.07314584  0.34080733  0.88043908     0.30200
H461        H  0.17055009  0.25990554  0.89698814     0.30300
H462        H  0.18959065  0.39183229  0.89724384     0.30500
Zr463      Zr  0.18273825  0.38664047  0.79673911     2.17500
O464        O  0.18339286  0.43132649  0.80468052    -0.51800
O465        O  0.25188897  0.43666456  0.79502252    -0.75000
O466        O  0.19786543  0.37315801  0.80718854    -0.81800
O467        O  0.13524502  0.42636948  0.78550274    -0.83600
O468        O  0.19479914  0.31390489  0.80725563    -0.79200
O469        O  0.16601594  0.43702021  0.79481022    -0.90800
O470        O  0.27354178  0.42046935  0.78639708    -0.76800
O471        O  0.21626365  0.35280283  0.79382691    -0.86300
O472        O  0.18948132  0.39301939  0.78574383    -0.86000
O473        O  0.13883234  0.32004604  0.80001424    -0.72700
O474        O  0.11710930  0.35823432  0.79249913    -0.84900
Zr475      Zr  0.11671859  0.26288024  0.78178335     2.26400
Zr476      Zr  0.17299118  0.28628991  0.79700267     2.06300
Zr477      Zr  0.12440860  0.36364986  0.78147580     2.10000
Zr478      Zr  0.22172100  0.35796942  0.78280360     1.78800
O479        O  0.06639307  0.37063007  0.78045580    -0.93700
O480        O  0.27821478  0.34912537  0.78449947    -0.41500
O481        O  0.15750611  0.32926335  0.77827030    -0.78100
O482        O  0.18169641  0.29160412  0.78601774    -0.96800
O483        O  0.10828472  0.25657151  0.79270636    -0.90100
O484        O  0.08283715  0.29692382  0.78459489    -0.92900
C485        C  0.27833720  0.44349527  0.79092232     1.00800
C486        C  0.15028013  0.44664595  0.79045871     1.13800
C487        C  0.19967719  0.34510198  0.80997693     1.04500
O488        O  0.23710585  0.29190695  0.79846279    -0.95100
O489        O  0.16484069  0.22516480  0.79289782    -0.90800
O490        O  0.12875531  0.20883637  0.78402532    -0.84000
C491        C  0.14807946  0.20242461  0.78823850     1.11200
O492        O  0.05771850  0.32101448  0.80385946    -0.97100
Zr493      Zr  0.07495289  0.29091892  0.79545330     1.88900
O494        O  0.05154886  0.20886294  0.78372875    -0.73700
O495        O  0.14096058  0.23468106  0.80475600    -0.53000
O496        O  0.05490324  0.24903016  0.80459485    -0.97700
O497        O  0.01798230  0.29773749  0.79297830    -0.54900
O498        O  0.02694411  0.22496258  0.79203453    -0.74200
C499        C  0.02471936  0.20120241  0.78775027     0.98100
O500        O  0.13283058  0.23735400  0.77260894    -0.63000
O501        O  0.15668780  0.40735225  0.77274524    -0.57800
O502        O  0.08181087  0.26605220  0.77273831    -0.94500
O503        O  0.08668176  0.32624694  0.77239840    -0.93000
O504        O  0.23989792  0.40087434  0.77380332    -0.93300
O505        O  0.23599567  0.32676471  0.77422504    -0.92100
C506        C  0.07465962  0.29146871  0.77021874     1.17000
H507        H  0.20461995  0.42032268  0.78452681     0.32900
H508        H  0.19460297  0.27756176  0.78460627     0.43800
H509        H  0.05726049  0.28556486  0.78265719     0.37300
H510        H  0.13375849  0.31812011  0.80440367     0.33800
H511        H  0.30027253  0.37143016  0.78231669     0.25500
H512        H  0.16274910  0.23514733  0.80714282     0.31500
H513        H  0.06020569  0.22754504  0.80355012     0.37400
H514        H  0.26798985  0.40953377  0.77308569     0.31900
H515        H  0.16510212  0.39254536  0.77003738     0.30700
H516        H  0.07393312  0.39214444  0.77742245     0.32400
H517        H  0.00299638  0.27732522  0.78981772     0.31400
H518        H  0.21569211  0.32185945  0.77107332     0.35400
H519        H  0.13777735  0.25660497  0.76927856     0.28100
H520        H  0.20907472  0.44229820  0.80682872     0.32300
H521        H  0.03092701  0.30088001  0.80518092     0.35200
H522        H  0.13507251  0.40768284  0.77042651     0.27800
H523        H  0.15920166  0.24090845  0.77347689     0.40700
H524        H  0.23143905  0.26741076  0.80063457     0.30700
H525        H  0.28461664  0.35492045  0.78894932     0.38400
H526        H  0.02895264  0.32296484  0.79071112     0.30200
H527        H  0.12854583  0.24467420  0.80767770     0.30300
H528        H  0.16346428  0.41444356  0.80777748     0.30500
Zr529      Zr  0.60209534  0.81244098  0.88491389     2.17500
O530        O  0.57377759  0.77150231  0.89406934    -0.51800
O531        O  0.54865800  0.82495220  0.88290733    -0.75000
O532        O  0.60916039  0.85234091  0.89401102    -0.81800
O533        O  0.56692811  0.72586361  0.87405963    -0.83600
O534        O  0.66965337  0.90741527  0.89402607    -0.79200
O535        O  0.55085665  0.74427337  0.88307490    -0.90800
O536        O  0.56486661  0.86576402  0.87463287    -0.76800
O537        O  0.63758234  0.88006888  0.88211976    -0.86300
O538        O  0.59553483  0.81413684  0.87397285    -0.86000
O539        O  0.66867558  0.83668107  0.88822448    -0.72700
O540        O  0.62978844  0.77582725  0.88052671    -0.84900
Zr541      Zr  0.72595045  0.86892442  0.86965728     2.26400
Zr542      Zr  0.70467096  0.90405311  0.88495682     2.06300
Zr543      Zr  0.62490063  0.77920650  0.86953528     2.10000
Zr544      Zr  0.63052210  0.88194430  0.87128122     1.78800
O545        O  0.63394577  0.72295217  0.86768432    -0.93700
O546        O  0.63696057  0.94415009  0.87468549    -0.41500
O547        O  0.65933048  0.84676343  0.86675219    -0.78100
O548        O  0.69868692  0.90724769  0.87393689    -0.96800
O549        O  0.73283442  0.86766371  0.88060559    -0.90100
O550        O  0.69115865  0.80139447  0.87257243    -0.92900
C551        C  0.54107812  0.84454660  0.87893223     1.00800
C552        C  0.54516184  0.71885254  0.87883650     1.13800
C553        C  0.63540096  0.88522963  0.89638390     1.04500
O554        O  0.71371902  0.96996376  0.88584418    -0.95100
O555        O  0.76953468  0.95416229  0.88147316    -0.90800
O556        O  0.77858436  0.93498567  0.87198784    -0.84000
C557        C  0.78956869  0.95946818  0.87650429     1.11200
O558        O  0.67173049  0.75748476  0.89263888    -0.97100
Zr559      Zr  0.69623418  0.80048359  0.88362227     1.88900
O560        O  0.77211484  0.84434698  0.87089871    -0.73700
O561        O  0.74650946  0.90989104  0.89370147    -0.53000
O562        O  0.74122292  0.82729823  0.89239764    -0.97700
O563        O  0.68125868  0.73306700  0.88178323    -0.54900
O564        O  0.75651925  0.80813746  0.87970098    -0.74200
C565        C  0.77816649  0.82398380  0.87496161     0.98100
O566        O  0.77047907  0.89806570  0.86088780    -0.63000
O567        O  0.57099205  0.75381409  0.86206722    -0.57800
O568        O  0.70483538  0.85122041  0.85883858    -0.94500
O569        O  0.64732624  0.79313939  0.85885347    -0.93000
O570        O  0.59038556  0.85992909  0.86194020    -0.93300
O571        O  0.65775118  0.93109716  0.86310463    -0.92100
C572        C  0.67585563  0.82220376  0.85602224     1.17000
H573        H  0.56822786  0.80164434  0.87272130     0.32900
H574        H  0.71328073  0.93421876  0.87253961     0.43800
H575        H  0.70100090  0.78629139  0.87052006     0.37300
H576        H  0.66972465  0.83515385  0.89267386     0.33800
H577        H  0.61754444  0.94719735  0.87217018     0.25500
H578        H  0.77220804  0.91673225  0.89184376     0.31500
H579        H  0.76641534  0.84786962  0.89061334     0.37400
H580        H  0.58684764  0.83355692  0.86107945     0.31900
H581        H  0.56312781  0.72578889  0.86148024     0.30700
H582        H  0.60730137  0.70088687  0.86671046     0.32400
H583        H  0.69718476  0.73450447  0.87813562     0.31400
H584        H  0.68038370  0.92922674  0.86149728     0.35400
H585        H  0.77197504  0.92365572  0.86011175     0.28100
H586        H  0.55493224  0.77890950  0.89576303     0.32300
H587        H  0.69257309  0.75130251  0.89372470     0.35200
H588        H  0.54856220  0.75319622  0.86426421     0.27800
H589        H  0.79690028  0.90494714  0.86244872     0.40700
H590        H  0.70507141  0.97480983  0.88179663     0.30700
H591        H  0.62599730  0.93911687  0.87893007     0.38400
H592        H  0.65377992  0.71924367  0.88025206     0.30200
H593        H  0.75139429  0.93417447  0.89587040     0.30300
H594        H  0.59545901  0.78141337  0.89713495     0.30500
Zr595      Zr  0.60516218  0.78258910  0.79651306     2.17500
O596        O  0.56503585  0.73454129  0.80437185    -0.51800
O597        O  0.55702740  0.80437290  0.79528337    -0.75000
O598        O  0.61883466  0.81045908  0.80701669    -0.81800
O599        O  0.55996693  0.70078293  0.78447880    -0.83600
O600        O  0.68044522  0.86360878  0.80722737    -0.79200
O601        O  0.54873430  0.71999668  0.79383189    -0.90800
O602        O  0.57357314  0.84184546  0.78661164    -0.76800
O603        O  0.64077476  0.85040761  0.79382060    -0.86300
O604        O  0.59901597  0.78537747  0.78555804    -0.86000
O605        O  0.67143017  0.80274910  0.79966634    -0.72700
O606        O  0.63118158  0.74402619  0.79200527    -0.84900
Zr607      Zr  0.72869889  0.83820059  0.78146749     2.26400
Zr608      Zr  0.70689657  0.87100697  0.79684852     2.06300
Zr609      Zr  0.62590271  0.74843898  0.78101852     2.10000
Zr610      Zr  0.63591969  0.85271686  0.78282435     1.78800
O611        O  0.61299464  0.68112723  0.78007872    -0.93700
O612        O  0.64831968  0.91883242  0.78509597    -0.41500
O613        O  0.66282347  0.81623067  0.77806644    -0.78100
O614        O  0.70246329  0.87631464  0.78586843    -0.96800
O615        O  0.73441650  0.83439758  0.79238329    -0.90100
O616        O  0.69213557  0.77015607  0.78409422    -0.92900
C617        C  0.55062602  0.82423979  0.79117478     1.00800
C618        C  0.53845645  0.69605641  0.78925052     1.13800
C619        C  0.64835802  0.83856048  0.80988878     1.04500
O620        O  0.69932654  0.92876687  0.79764344    -0.95100
O621        O  0.77097627  0.92068746  0.79324471    -0.90800
O622        O  0.78455290  0.90262607  0.78397352    -0.84000
C623        C  0.79310807  0.92677992  0.78852193     1.11200
O624        O  0.66749454  0.71665541  0.80296636    -0.97100
Zr625      Zr  0.69820495  0.76646581  0.79491469     1.88900
O626        O  0.78102460  0.82412252  0.78329069    -0.73700
O627        O  0.75949500  0.89631045  0.80454806    -0.53000
O628        O  0.73703761  0.78451081  0.80440621    -0.97700
O629        O  0.68912291  0.70265794  0.79179566    -0.54900
O630        O  0.76409072  0.78323531  0.79157372    -0.74200
C631        C  0.78804117  0.80419187  0.78726950     0.98100
O632        O  0.75457169  0.88002330  0.77233432    -0.63000
O633        O  0.58628935  0.74326999  0.77198903    -0.57800
O634        O  0.72333782  0.79991762  0.77227229    -0.94500
O635        O  0.66203080  0.74602629  0.77200190    -0.93000
O636        O  0.59504638  0.82900727  0.77356216    -0.93300
O637        O  0.66037816  0.89846211  0.77416497    -0.92100
C638        C  0.69679471  0.76766229  0.76977876     1.17000
H639        H  0.57185092  0.77447762  0.78432675     0.32900
H640        H  0.71781041  0.90342258  0.78456853     0.43800
H641        H  0.70243057  0.75525884  0.78207748     0.37300
H642        H  0.67315627  0.79890387  0.80404224     0.33800
H643        H  0.63581692  0.91659362  0.78916976     0.25500
H644        H  0.75725935  0.91707983  0.80680727     0.31500
H645        H  0.75486968  0.81330425  0.80408291     0.37400
H646        H  0.56764208  0.81388072  0.77508931     0.31900
H647        H  0.60509426  0.76275968  0.76900850     0.30700
H648        H  0.60148052  0.67250109  0.77589554     0.32400
H649        H  0.71291546  0.70856413  0.78939150     0.31400
H650        H  0.68346363  0.89712064  0.77264347     0.35400
H651        H  0.73451304  0.86663672  0.76905825     0.28100
H652        H  0.55267284  0.74685093  0.80681004     0.32300
H653        H  0.68706237  0.70872956  0.80405936     0.35200
H654        H  0.57895672  0.71739748  0.77013373     0.27800
H655        H  0.75271670  0.90368856  0.77332463     0.40700
H656        H  0.70351254  0.93607538  0.80208169     0.30700
H657        H  0.67691770  0.93461229  0.78593649     0.38400
H658        H  0.66766021  0.69248076  0.78869544     0.30200
H659        H  0.75170430  0.87480796  0.80759048     0.30300
H660        H  0.58398343  0.73303802  0.80723112     0.30500
Zr661      Zr  0.17571683  0.77375329  0.88473825     2.17500
O662        O  0.21991572  0.78841583  0.89353776    -0.51800
O663        O  0.16096616  0.70692475  0.88315094    -0.75000
O664        O  0.13905146  0.74168261  0.89404560    -0.81800
O665        O  0.26114287  0.82413368  0.87374132    -0.83600
O666        O  0.08228711  0.74380506  0.89424749    -0.79200
O667        O  0.24187133  0.78653101  0.88242439    -0.90800
O668        O  0.11756960  0.68062059  0.87518902    -0.76800
O669        O  0.10770931  0.73936146  0.88209017    -0.86300
O670        O  0.17312955  0.76528947  0.87379930    -0.86000
O671        O  0.15057180  0.81501557  0.88821532    -0.72700
O672        O  0.21147763  0.83845404  0.88044839    -0.84900
Zr673      Zr  0.11507813  0.83768555  0.86977990     2.26400
Zr674      Zr  0.08273893  0.78113469  0.88517335     2.06300
Zr675      Zr  0.20735549  0.83005775  0.86949881     2.10000
Zr676      Zr  0.10500942  0.73112881  0.87121634     1.78800
O677        O  0.26152573  0.89684044  0.86792029    -0.93700
O678        O  0.03909601  0.67818783  0.87377361    -0.41500
O679        O  0.13951619  0.79526654  0.86681975    -0.78100
O680        O  0.07825098  0.77211094  0.87412907    -0.96800
O681        O  0.11728972  0.84564970  0.88075961    -0.90100
O682        O  0.18308117  0.87254619  0.87250736    -0.92900
C683        C  0.13935680  0.67869821  0.87945561     1.00800
C684        C  0.26742146  0.80669718  0.87824532     1.13800
C685        C  0.10612267  0.73357045  0.89653498     1.04500
O686        O  0.01774735  0.72365189  0.88656134    -0.95100
O687        O  0.03106772  0.79348134  0.88168895    -0.90800
O688        O  0.04905279  0.82314261  0.87228799    -0.84000
C689        C  0.02502470  0.80853069  0.87682467     1.11200
O690        O  0.23051259  0.89518903  0.89220270    -0.97100
Zr691      Zr  0.18504819  0.87878208  0.88353636     1.88900
O692        O  0.13660909  0.90789449  0.87101527    -0.73700
O693        O  0.07536653  0.81499326  0.89407725    -0.53000
O694        O  0.16290424  0.90072723  0.89242694    -0.97700
O695        O  0.25077603  0.93356721  0.88140311    -0.54900
O696        O  0.17153156  0.92858794  0.87994392    -0.74200
C697        C  0.15484452  0.93391115  0.87525396     0.98100
O698        O  0.08253273  0.84955845  0.86108351    -0.63000
O699        O  0.23418245  0.80588238  0.86155788    -0.57800
O700        O  0.13212848  0.83319711  0.85895355    -0.94500
O701        O  0.19268387  0.83923801  0.85895244    -0.93000
O702        O  0.12731298  0.70709519  0.86262267    -0.93300
O703        O  0.06483909  0.71595627  0.86190775    -0.92100
C704        C  0.16232321  0.83583590  0.85613894     1.17000
H705        H  0.18561073  0.75049791  0.87253926     0.32900
H706        H  0.05114533  0.75909570  0.87279356     0.43800
H707        H  0.19709594  0.89764411  0.87042951     0.37300
H708        H  0.15274779  0.81781427  0.89266271     0.33800
H709        H  0.03436815  0.65640735  0.87093601     0.25500
H710        H  0.06941491  0.83465500  0.89228750     0.31500
H711        H  0.13630614  0.89554972  0.89127737     0.37400
H712        H  0.15199648  0.73041502  0.86122458     0.31900
H713        H  0.26207799  0.82672827  0.86111818     0.30700
H714        H  0.27068044  0.89683643  0.86365111     0.32400
H715        H  0.24760436  0.94745284  0.87781960     0.31400
H716        H  0.05697157  0.73630592  0.86176646     0.35400
H717        H  0.05754038  0.82453991  0.86042254     0.28100
H718        H  0.21574072  0.76255080  0.89492636     0.32300
H719        H  0.23780997  0.92229660  0.89345421     0.35200
H720        H  0.23516425  0.78345073  0.86346406     0.27800
H721        H  0.07454672  0.86831549  0.86261941     0.40700
H722        H  0.00905521  0.71301967  0.88233429     0.30700
H723        H  0.04180182  0.66894195  0.87791159     0.38400
H724        H  0.26547128  0.92113680  0.87974958     0.30200
H725        H  0.05035765  0.79520951  0.89601872     0.30300
H726        H  0.20895423  0.79726082  0.89689395     0.30500
Zr727      Zr  0.20951098  0.80762389  0.79672355     2.17500
O728        O  0.25561767  0.80991852  0.80453920    -0.51800
O729        O  0.18751458  0.73739356  0.79565161    -0.75000
O730        O  0.18308327  0.79592335  0.80728092    -0.81800
O731        O  0.29434171  0.85083830  0.78524579    -0.83600
O732        O  0.12822060  0.80137050  0.80743521    -0.79200
O733        O  0.27498204  0.82004043  0.79453651    -0.90800
O734        O  0.14509681  0.71364555  0.78756190    -0.76800
O735        O  0.14135823  0.77503934  0.79421587    -0.86300
O736        O  0.20556918  0.79675929  0.78579359    -0.86000
O737        O  0.18990660  0.85429309  0.79978665    -0.72700
O738        O  0.24728015  0.87167443  0.79199848    -0.84900
Zr739      Zr  0.15170368  0.87225202  0.78144851     2.26400
Zr740      Zr  0.12133027  0.82122124  0.79712206     2.06300
Zr741      Zr  0.24200722  0.86015306  0.78104198     2.10000
Zr742      Zr  0.13757275  0.76574494  0.78325646     1.78800
O743        O  0.30706927  0.91529115  0.77868128    -0.93700
O744        O  0.07054087  0.71364899  0.78542901    -0.41500
O745        O  0.17396382  0.82817987  0.77820439    -0.78100
O746        O  0.11437056  0.80891725  0.78621544    -0.96800
O747        O  0.15679959  0.88424203  0.79230437    -0.90100
O748        O  0.22005587  0.90469088  0.78394647    -0.92900
C749        C  0.16455617  0.70952546  0.79195525     1.00800
C750        C  0.29996909  0.83567525  0.79014320     1.13800
C751        C  0.15414993  0.79574162  0.81011369     1.04500
O752        O  0.06147670  0.75856220  0.79890877    -0.95100
O753        O  0.06997036  0.83236472  0.79330895    -0.90800
O754        O  0.08715964  0.86349467  0.78400605    -0.84000
C755        C  0.06303301  0.84738398  0.78853921     1.11200
O756        O  0.27576087  0.94053344  0.80269237    -0.97100
Zr757      Zr  0.22484812  0.91655337  0.79472068     1.88900
O758        O  0.16464683  0.93848119  0.78301267    -0.73700
O759        O  0.10322766  0.85570483  0.80464738    -0.53000
O760        O  0.20492239  0.93678936  0.80406819    -0.97700
O761        O  0.28821789  0.97124187  0.79144971    -0.54900
O762        O  0.20688532  0.96434723  0.79112378    -0.74200
C763        C  0.18479550  0.96614948  0.78688606     0.98100
O764        O  0.11097614  0.85357694  0.77214786    -0.63000
O765        O  0.24771731  0.82021587  0.77290013    -0.57800
O766        O  0.18848785  0.90455535  0.77213845    -0.94500
O767        O  0.24150972  0.89580577  0.77176216    -0.93000
O768        O  0.15748767  0.73910973  0.77470830    -0.93300
O769        O  0.09292851  0.74888405  0.77447334    -0.92100
C770        C  0.22008325  0.90929803  0.76955139     1.17000
H771        H  0.21647066  0.78034133  0.78465116     0.32900
H772        H  0.08706698  0.79658030  0.78501380     0.43800
H773        H  0.23461366  0.92954365  0.78181002     0.37300
H774        H  0.19415183  0.86049922  0.80414494     0.33800
H775        H  0.06798334  0.69009837  0.78330302     0.25500
H776        H  0.08194596  0.83465538  0.80713953     0.31500
H777        H  0.18114477  0.93785153  0.80284932     0.37400
H778        H  0.13963978  0.71026088  0.77494076     0.31900
H779        H  0.26497692  0.83942469  0.76975104     0.30700
H780        H  0.31395513  0.90883477  0.77460493     0.32400
H781        H  0.28190991  0.98630265  0.78843972     0.31400
H782        H  0.08157721  0.76633836  0.77484519     0.35400
H783        H  0.12066973  0.83928206  0.76957700     0.28100
H784        H  0.24156988  0.78486489  0.80686079     0.32300
H785        H  0.28179684  0.96769092  0.80365247     0.35200
H786        H  0.26396874  0.80996386  0.77472441     0.27800
H787        H  0.08448483  0.83283768  0.77347921     0.40700
H788        H  0.04096094  0.76551247  0.79980696     0.30700
H789        H  0.07057554  0.70791762  0.78989131     0.38400
H790        H  0.30019122  0.95888930  0.78892876     0.30200
H791        H  0.12595982  0.86861137  0.80750871     0.30300
H792        H  0.25909916  0.83064383  0.80751643     0.30500
Zr793      Zr  0.51334144  0.43974035  0.55132891     2.17500
O794        O  0.55464639  0.45260378  0.56047016    -0.51800
O795        O  0.50016143  0.37324631  0.54971726    -0.75000
O796        O  0.47477306  0.40832171  0.56053813    -0.81800
O797        O  0.59897127  0.48876084  0.54038034    -0.83600
O798        O  0.42007104  0.41416289  0.56075779    -0.79200
O799        O  0.58121438  0.45591401  0.54952398    -0.90800
O800        O  0.45565287  0.34628074  0.54192103    -0.76800
O801        O  0.44520759  0.40685456  0.54872773    -0.86300
O802        O  0.51015218  0.42903916  0.54042585    -0.86000
O803        O  0.48991800  0.48305117  0.55450011    -0.72700
O804        O  0.54985098  0.50347343  0.54671967    -0.84900
Zr805      Zr  0.45475545  0.50418574  0.53593943     2.26400
Zr806      Zr  0.42194775  0.45061273  0.55151061     2.06300
Zr807      Zr  0.54503465  0.49285768  0.53580253     2.10000
Zr808      Zr  0.44191670  0.39617182  0.53790909     1.78800
O809        O  0.59998577  0.55834295  0.53359278    -0.93700
O810        O  0.37800832  0.33984839  0.54047424    -0.41500
O811        O  0.47695510  0.45944523  0.53317333    -0.78100
O812        O  0.41700546  0.43934780  0.54052624    -0.96800
O813        O  0.45773452  0.51432997  0.54685190    -0.90100
O814        O  0.52290628  0.53750040  0.53857966    -0.92900
C815        C  0.47812859  0.34464260  0.54609952     1.00800
C816        C  0.60633953  0.47461005  0.54521563     1.13800
C817        C  0.44255425  0.40227359  0.56305164     1.04500
O818        O  0.35679323  0.39408003  0.55324483    -0.95100
O819        O  0.37059540  0.46366364  0.54796469    -0.90800
O820        O  0.38922849  0.49167274  0.53847263    -0.84000
C821        C  0.36491693  0.47821066  0.54299828     1.11200
O822        O  0.56788884  0.56335515  0.55866677    -0.97100
Zr823      Zr  0.52550216  0.54600854  0.54956858     1.88900
O824        O  0.47808721  0.57499178  0.53677483    -0.73700
O825        O  0.41808935  0.48830274  0.56016156    -0.53000
O826        O  0.50054953  0.57036195  0.55776529    -0.97700
O827        O  0.59298532  0.59793942  0.54760482    -0.54900
O828        O  0.51779880  0.59785125  0.54519558    -0.74200
C829        C  0.49994096  0.60250239  0.54060431     0.98100
O830        O  0.42154456  0.51507178  0.52723746    -0.63000
O831        O  0.57131972  0.46518113  0.52834793    -0.57800
O832        O  0.47260587  0.50078431  0.52514930    -0.94500
O833        O  0.52932154  0.49867430  0.52515116    -0.93000
O834        O  0.46418917  0.37641257  0.52878195    -0.93300
O835        O  0.39297982  0.37516222  0.52968116    -0.92100
C836        C  0.50074395  0.49920119  0.52234218     1.17000
H837        H  0.52218684  0.41371651  0.53924175     0.32900
H838        H  0.38988344  0.42674831  0.53921188     0.43800
H839        H  0.53753000  0.56205004  0.53638513     0.37300
H840        H  0.49225282  0.48656892  0.55894021     0.33800
H841        H  0.37837799  0.31686876  0.53864954     0.25500
H842        H  0.41428870  0.50900468  0.55821975     0.31500
H843        H  0.47835936  0.57188413  0.55587338     0.37400
H844        H  0.48782281  0.40078835  0.52737591     0.31900
H845        H  0.59994028  0.48412577  0.52815487     0.30700
H846        H  0.61918129  0.55365440  0.53132808     0.32400
H847        H  0.59160234  0.61126748  0.54380206     0.31400
H848        H  0.40165528  0.39893012  0.52709720     0.35400
H849        H  0.39621215  0.49022381  0.52670792     0.28100
H850        H  0.54694387  0.42644135  0.56223573     0.32300
H851        H  0.57321227  0.58983737  0.55993672     0.35200
H852        H  0.56919756  0.44158476  0.53037870     0.27800
H853        H  0.41430539  0.53456162  0.52868798     0.40700
H854        H  0.34852059  0.38116303  0.54914499     0.30700
H855        H  0.37897556  0.33645277  0.54500123     0.38400
H856        H  0.60686264  0.58388347  0.54630439     0.30200
H857        H  0.39247338  0.47037340  0.56213254     0.30300
H858        H  0.54536289  0.46508892  0.56350526     0.30500
Zr859      Zr  0.53750827  0.47100055  0.46277831     2.17500
O860        O  0.58718797  0.48044614  0.47045439    -0.51800
O861        O  0.51597737  0.40086275  0.46192720    -0.75000
O862        O  0.51132116  0.45750916  0.47336601    -0.81800
O863        O  0.62029264  0.51151998  0.45063020    -0.83600
O864        O  0.45824983  0.46602493  0.47370522    -0.79200
O865        O  0.60075033  0.47972677  0.45984924    -0.90800
O866        O  0.47142268  0.37496054  0.45411260    -0.76800
O867        O  0.46885943  0.43800600  0.46060370    -0.86300
O868        O  0.53183846  0.45900494  0.45188266    -0.86000
O869        O  0.51779111  0.51753233  0.46586954    -0.72700
O870        O  0.57477436  0.53455178  0.45790706    -0.84900
Zr871      Zr  0.47724196  0.53381977  0.44773999     2.26400
Zr872      Zr  0.44886907  0.48433203  0.46344934     2.06300
Zr873      Zr  0.56778289  0.52205551  0.44699618     2.10000
Zr874      Zr  0.46333067  0.42710821  0.44969835     1.78800
O875        O  0.63228193  0.57964611  0.44524882    -0.93700
O876        O  0.39628298  0.37718056  0.45234343    -0.41500
O877        O  0.49912164  0.48932454  0.44450460    -0.78100
O878        O  0.44032362  0.47075590  0.45258913    -0.96800
O879        O  0.48410270  0.54697215  0.45854721    -0.90100
O880        O  0.54611323  0.56677315  0.44993822    -0.92900
C881        C  0.49226877  0.37207959  0.45843112     1.00800
C882        C  0.62535120  0.49495861  0.45538692     1.13800
C883        C  0.48334541  0.45876787  0.47628511     1.04500
O884        O  0.38848351  0.42199186  0.46510525    -0.95100
O885        O  0.39760590  0.49693339  0.46009020    -0.90800
O886        O  0.41399368  0.52724473  0.45072576    -0.84000
C887        C  0.39064092  0.51241692  0.45538679     1.11200
O888        O  0.60220436  0.59905697  0.46882586    -0.97100
Zr889      Zr  0.55253463  0.57937737  0.46071214     1.88900
O890        O  0.49119830  0.60050822  0.44907907    -0.73700
O891        O  0.43050285  0.51792350  0.47111260    -0.53000
O892        O  0.53553447  0.60306934  0.46997852    -0.97700
O893        O  0.61504824  0.63535457  0.45743354    -0.54900
O894        O  0.53349348  0.62623639  0.45718684    -0.74200
C895        C  0.51125393  0.62797854  0.45297983     0.98100
O896        O  0.43288061  0.51592333  0.43888865    -0.63000
O897        O  0.57598268  0.48526380  0.43859106    -0.57800
O898        O  0.51251926  0.56341439  0.43822208    -0.94500
O899        O  0.56548235  0.55473415  0.43754151    -0.93000
O900        O  0.47814000  0.39563883  0.44123002    -0.93300
O901        O  0.41987578  0.41188443  0.44080209    -0.92100
C902        C  0.54324425  0.56745773  0.43543281     1.17000
H903        H  0.54250827  0.44244487  0.45071019     0.32900
H904        H  0.41289817  0.45864127  0.45145741     0.43800
H905        H  0.56021443  0.59130459  0.44771610     0.37300
H906        H  0.52261477  0.52382455  0.47021703     0.33800
H907        H  0.39128463  0.35376704  0.44989446     0.25500
H908        H  0.40995927  0.49664775  0.47367272     0.31500
H909        H  0.50872644  0.59849068  0.46916735     0.37400
H910        H  0.49899934  0.41772601  0.43883738     0.31900
H911        H  0.59837558  0.50534717  0.43614682     0.30700
H912        H  0.64242823  0.57324330  0.44149113     0.32400
H913        H  0.60848439  0.64754815  0.45396618     0.31400
H914        H  0.43153661  0.43654085  0.43836914     0.35400
H915        H  0.44405805  0.50612762  0.43571010     0.28100
H916        H  0.57597210  0.45554411  0.47282097     0.32300
H917        H  0.61233480  0.62748623  0.46952655     0.35200
H918        H  0.58635639  0.46955663  0.44057438     0.27800
H919        H  0.40849124  0.49202318  0.44021718     0.40700
H920        H  0.37293025  0.41758813  0.46127338     0.30700
H921        H  0.39792801  0.36992066  0.45667707     0.38400
H922        H  0.62946435  0.62346796  0.45547957     0.30200
H923        H  0.45359868  0.53155891  0.47388919     0.30300
H924        H  0.58810372  0.50020446  0.47340937     0.30500
Zr925      Zr  0.54839962  0.05008641  0.55127093     2.17500
O926        O  0.53483164  0.07957629  0.56018774    -0.51800
O927        O  0.61468913  0.10390127  0.54964387    -0.75000
O928        O  0.57913327  0.04309765  0.56054498    -0.81800
O929        O  0.49627341  0.08481331  0.54062834    -0.83600
O930        O  0.57591968  0.98369262  0.56067295    -0.79200
O931        O  0.53385288  0.10244987  0.54933002    -0.90800
O932        O  0.64192679  0.08554955  0.54201339    -0.76800
O933        O  0.58184711  0.01543289  0.54870810    -0.86300
O934        O  0.55869901  0.05726202  0.54039611    -0.86000
O935        O  0.50541618  0.98340123  0.55446497    -0.72700
O936        O  0.48429679  0.02267241  0.54677452    -0.84900
Zr937      Zr  0.48403151  0.92669166  0.53594177     2.26400
Zr938      Zr  0.53844136  0.94831691  0.55148186     2.06300
Zr939      Zr  0.49469114  0.02829731  0.53584658     2.10000
Zr940      Zr  0.59186987  0.02230227  0.53788347     1.78800
O941        O  0.43016285  0.01768237  0.53287255    -0.93700
O942        O  0.64568230  0.01112293  0.54067346    -0.41500
O943        O  0.52823621  0.99374882  0.53325594    -0.78100
O944        O  0.54907025  0.95406192  0.54047402    -0.96800
O945        O  0.47445887  0.92006559  0.54686248    -0.90100
O946        O  0.45037937  0.96116123  0.53856978    -0.92900
C947        C  0.64341417  0.11009907  0.54609997     1.00800
C948        C  0.51292092  0.10763775  0.54527334     1.13800
C949        C  0.58651988  0.01773954  0.56301775     1.04500
O950        O  0.59538888  0.93982780  0.55283012    -0.95100
O951        O  0.52488822  0.88378365  0.54796472    -0.90800
O952        O  0.49500747  0.87262246  0.53858397    -0.84000
C953        C  0.50921599  0.86255708  0.54311608     1.11200
O954        O  0.42012148  0.97767744  0.55845534    -0.97100
Zr955      Zr  0.44219607  0.95558402  0.54955131     1.88900
O956        O  0.41365889  0.87864808  0.53682166    -0.73700
O957        O  0.50215829  0.90524875  0.56007621    -0.53000
O958        O  0.41818918  0.90900542  0.55811795    -0.97700
O959        O  0.39072189  0.97039786  0.54673772    -0.54900
O960        O  0.39207369  0.89375653  0.54554529    -0.74200
C961        C  0.38702799  0.87163886  0.54088414     0.98100
O962        O  0.47493427  0.88362868  0.52716820    -0.63000
O963        O  0.52605774  0.08417015  0.52879125    -0.57800
O964        O  0.48673411  0.94879464  0.52518653    -0.94500
O965        O  0.48991753  0.00816792  0.52515287    -0.93000
O966        O  0.61358590  0.06677547  0.52905574    -0.93300
O967        O  0.61229525  0.99841209  0.52902521    -0.92100
C968        C  0.48898589  0.97883895  0.52236155     1.17000
H969        H  0.57400516  0.08460832  0.53922600     0.32900
H970        H  0.56156414  0.93944682  0.53914372     0.43800
H971        H  0.42573442  0.95093328  0.53636449     0.37300
H972        H  0.50204475  0.98249676  0.55890045     0.33800
H973        H  0.66753282  0.02839452  0.53787271     0.25500
H974        H  0.52193979  0.90140951  0.56233787     0.31500
H975        H  0.42322115  0.88766944  0.55684633     0.37400
H976        H  0.58901654  0.06370097  0.52724084     0.31900
H977        H  0.50584594  0.09164078  0.52795675     0.30700
H978        H  0.43508540  0.04376818  0.53146528     0.32400
H979        H  0.37687808  0.95320314  0.54315558     0.31400
H980        H  0.58871935  0.98559459  0.52632823     0.35400
H981        H  0.49950000  0.88243651  0.52687003     0.28100
H982        H  0.56090179  0.09834954  0.56196382     0.32300
H983        H  0.39123835  0.95994112  0.55864668     0.35200
H984        H  0.54640825  0.10628035  0.53126131     0.27800
H985        H  0.45446772  0.85689019  0.52845865     0.40700
H986        H  0.60400772  0.93847376  0.54857482     0.30700
H987        H  0.65446071  0.02338887  0.54480887     0.38400
H988        H  0.40492092  0.99731156  0.54499217     0.30200
H989        H  0.49634285  0.92162245  0.56288689     0.30300
H990        H  0.52230096  0.05818757  0.56327907     0.30500
Zr991      Zr  0.51315573  0.04926057  0.46325184     2.17500
O992        O  0.50520014  0.08814897  0.47136161    -0.51800
O993        O  0.58309062  0.09674856  0.46196178    -0.75000
O994        O  0.53006612  0.03688481  0.47368169    -0.81800
O995        O  0.46921236  0.09095930  0.45164294    -0.83600
O996        O  0.52386731  0.97619218  0.47363488    -0.79200
O997        O  0.50491440  0.10481280  0.46054390    -0.90800
O998        O  0.60498331  0.07827321  0.45361135    -0.76800
O999        O  0.54453244  0.01274955  0.46058526    -0.86300
O1000       O  0.52176836  0.05481637  0.45227917    -0.86000
O1001       O  0.46741591  0.98309617  0.46644256    -0.72700
O1002       O  0.44859139  0.02282390  0.45871667    -0.84900
Zr1003     Zr  0.44589548  0.92508622  0.44818719     2.26400
Zr1004     Zr  0.49905177  0.94656836  0.46361685     2.06300
Zr1005     Zr  0.45779241  0.02770695  0.44771879     2.10000
Zr1006     Zr  0.55239657  0.01770869  0.44961898     1.78800
O1007       O  0.40190980  0.03746850  0.44602761    -0.93700
O1008       O  0.60430094  0.00300951  0.45206649    -0.41500
O1009       O  0.48920412  0.99124269  0.44478515    -0.78100
O1010       O  0.51006182  0.95138031  0.45267695    -0.96800
O1011       O  0.43528878  0.91897017  0.45907501    -0.90100
O1012       O  0.41411619  0.96141155  0.45079214    -0.92900
C1013       C  0.60998585  0.10181150  0.45806388     1.00800
C1014       C  0.48756231  0.11334715  0.45627977     1.13800
C1015       C  0.53097767  0.00806216  0.47638454     1.04500
O1016       O  0.55861366  0.94360552  0.46555540    -0.95100
O1017       O  0.48707103  0.88341421  0.45983353    -0.90800
O1018       O  0.45486545  0.86958358  0.45061351    -0.84000
C1019       C  0.47120341  0.86136381  0.45507651     1.11200
O1020       O  0.38274325  0.98674758  0.46927390    -0.97100
Zr1021     Zr  0.40440080  0.95597201  0.46161546     1.88900
O1022       O  0.37976055  0.87196389  0.45000296    -0.73700
O1023       O  0.46218171  0.89715102  0.47148150    -0.53000
O1024       O  0.38540700  0.91949702  0.47132838    -0.97700
O1025       O  0.34874492  0.96281832  0.45825207    -0.54900
O1026       O  0.35661534  0.88998643  0.45827405    -0.74200
C1027       C  0.35336021  0.86545150  0.45405463     0.98100
O1028       O  0.46138720  0.89936106  0.43896186    -0.63000
O1029       O  0.49596928  0.07189278  0.43936208    -0.57800
O1030       O  0.41290173  0.92942259  0.43901100    -0.94500
O1031       O  0.42060055  0.99079018  0.43853597    -0.93000
O1032       O  0.57943259  0.06236096  0.44085084    -0.93300
O1033       O  0.56730448  0.98943208  0.44071138    -0.92100
C1034       C  0.40726081  0.95562573  0.43641446     1.17000
H1035       H  0.53795245  0.08202137  0.45107800     0.32900
H1036       H  0.52224336  0.93638261  0.45140104     0.43800
H1037       H  0.38899324  0.95082743  0.44874262     0.37300
H1038       H  0.46264826  0.98179212  0.47083977     0.33800
H1039       H  0.62764807  0.02311825  0.44979453     0.25500
H1040       H  0.48241432  0.89655655  0.47414851     0.31500
H1041       H  0.37645368  0.89186800  0.47016297     0.37400
H1042       H  0.57394210  0.08391036  0.44172688     0.31900
H1043       H  0.50300098  0.05589696  0.43667392     0.30700
H1044       H  0.40706476  0.05094581  0.44197564     0.32400
H1045       H  0.33492915  0.94231502  0.45505387     0.31400
H1046       H  0.54157989  0.96701814  0.43943817     0.35400
H1047       H  0.47211370  0.92132766  0.43595371     0.28100
H1048       H  0.53077943  0.10216159  0.47355719     0.32300
H1049       H  0.35537423  0.96663615  0.47033234     0.35200
H1050       H  0.47655047  0.07530315  0.43691186     0.27800
H1051       H  0.48441520  0.89674109  0.44010082     0.40700
H1052       H  0.55229197  0.92626876  0.46921278     0.30700
H1053       H  0.61062688  0.01034033  0.45647994     0.38400
H1054       H  0.36076399  0.98797908  0.45594786     0.30200
H1055       H  0.45026264  0.90907725  0.47411342     0.30300
H1056       H  0.48659960  0.06885612  0.47438529     0.30500
Zr1057     Zr  0.93760887  0.47553119  0.55193891     2.17500
O1058       O  0.91054203  0.43320416  0.56098461    -0.51800
O1059       O  0.88377638  0.48821159  0.55058110    -0.75000
O1060       O  0.94505882  0.51423372  0.56121210    -0.81800
O1061       O  0.90183623  0.38825192  0.54093162    -0.83600
O1062       O  0.00523323  0.56967439  0.56101799    -0.79200
O1063       O  0.88660004  0.40712972  0.54999509    -0.90800
O1064       O  0.90267338  0.53369197  0.54292977    -0.76800
O1065       O  0.97372618  0.54380647  0.54940274    -0.86300
O1066       O  0.92909324  0.47971992  0.54108492    -0.86000
O1067       O  0.00475338  0.49837414  0.55485877    -0.72700
O1068       O  0.96340357  0.43889373  0.54697015    -0.84900
Zr1069     Zr  0.05875921  0.53262116  0.53612826     2.26400
Zr1070     Zr  0.04091289  0.56639087  0.55192454     2.06300
Zr1071     Zr  0.95615802  0.44425631  0.53610004     2.10000
Zr1072     Zr  0.96548176  0.54795841  0.53864598     1.78800
O1073       O  0.96330291  0.38893933  0.53272481    -0.93700
O1074       O  0.97499533  0.61148712  0.54200757    -0.41500
O1075       O  0.99196207  0.51233742  0.53354926    -0.78100
O1076       O  0.03364828  0.57155911  0.54096494    -0.96800
O1077       O  0.06695279  0.52947519  0.54702357    -0.90100
O1078       O  0.02295835  0.46472931  0.53870991    -0.92900
C1079       C  0.87806945  0.51101747  0.54702241     1.00800
C1080       C  0.88078002  0.38134192  0.54580504     1.13800
C1081       C  0.97124538  0.54747036  0.56349311     1.04500
O1082       O  0.05416842  0.63345453  0.55349389    -0.95100
O1083       O  0.10562578  0.61591214  0.54813143    -0.90800
O1084       O  0.11246950  0.59812820  0.53840670    -0.84000
C1085       C  0.12469922  0.62181321  0.54302833     1.11200
O1086       O  0.00390267  0.41876003  0.55865994    -0.97100
Zr1087     Zr  0.03008114  0.46168972  0.54966891     1.88900
O1088       O  0.10671310  0.50965164  0.53708978    -0.73700
O1089       O  0.08187799  0.56941908  0.56061794    -0.53000
O1090       O  0.07680901  0.48165315  0.55821983    -0.97700
O1091       O  0.01241960  0.39444806  0.54697455    -0.54900
O1092       O  0.09068230  0.47058270  0.54555229    -0.74200
C1093       C  0.11326183  0.48874157  0.54099376     0.98100
O1094       O  0.10148285  0.56341105  0.52720923    -0.63000
O1095       O  0.89850974  0.42420846  0.52952288    -0.57800
O1096       O  0.03490326  0.51363293  0.52540297    -0.94500
O1097       O  0.97562920  0.45737629  0.52536052    -0.93000
O1098       O  0.92146931  0.52925601  0.52974935    -0.93300
O1099       O  0.99082259  0.59601212  0.53029324    -0.92100
C1100       C  0.00482133  0.48577319  0.52256919     1.17000
H1101       H  0.90166025  0.46820249  0.53999925     0.32900
H1102       H  0.04838462  0.59867336  0.53965649     0.43800
H1103       H  0.03232639  0.44985828  0.53641946     0.37300
H1104       H  0.00648842  0.49599507  0.55927901     0.33800
H1105       H  0.96704308  0.60779027  0.54641605     0.25500
H1106       H  0.10614392  0.57247909  0.55869493     0.31500
H1107       H  0.08828338  0.46424327  0.55794811     0.37400
H1108       H  0.91146156  0.50075994  0.52918383     0.31900
H1109       H  0.89320774  0.39899022  0.52764217     0.30700
H1110       H  0.94835256  0.38009099  0.52879331     0.32400
H1111       H  0.02620968  0.39656915  0.54303476     0.31400
H1112       H  0.00083929  0.58459092  0.52718979     0.35400
H1113       H  0.10255847  0.58896109  0.52661625     0.28100
H1114       H  0.89091051  0.43937931  0.56272481     0.32300
H1115       H  0.01924064  0.40505556  0.55898971     0.35200
H1116       H  0.87610733  0.41684665  0.53236210     0.27800
H1117       H  0.12829207  0.57032161  0.52857223     0.40700
H1118       H  0.07161227  0.64311727  0.55716871     0.30700
H1119       H  0.00389193  0.62915674  0.54211055     0.38400
H1120       H  0.98423443  0.38148395  0.54581883     0.30200
H1121       H  0.09019993  0.59520632  0.56259172     0.30300
H1122       H  0.93219266  0.44351789  0.56405825     0.30500
Zr1123     Zr  0.93139152  0.44551627  0.46320596     2.17500
O1124       O  0.88732283  0.39996075  0.47105264    -0.51800
O1125       O  0.88289733  0.46674196  0.46193403    -0.75000
O1126       O  0.94463327  0.47229461  0.47380014    -0.81800
O1127       O  0.89151704  0.35953457  0.45156117    -0.83600
O1128       O  0.00380985  0.52860661  0.47377634    -0.79200
O1129       O  0.87929675  0.37938191  0.46077274    -0.90800
O1130       O  0.90070838  0.50681367  0.45356524    -0.76800
O1131       O  0.96507195  0.51323738  0.46032482    -0.86300
O1132       O  0.92533246  0.44719334  0.45220636    -0.86000
O1133       O  0.99814762  0.46835815  0.46644756    -0.72700
O1134       O  0.95961204  0.40861232  0.45879911    -0.84900
Zr1135     Zr  0.05552841  0.50437985  0.44816614     2.26400
Zr1136     Zr  0.03147373  0.53631891  0.46346829     2.06300
Zr1137     Zr  0.95452323  0.41196215  0.44776350     2.10000
Zr1138     Zr  0.96048495  0.51452409  0.44929820     1.78800
O1139       O  0.94786743  0.34751512  0.44610632    -0.93700
O1140       O  0.97352314  0.58176271  0.45046051    -0.41500
O1141       O  0.98924129  0.47945627  0.44466912    -0.78100
O1142       O  0.02715978  0.54095519  0.45247203    -0.96800
O1143       O  0.06100004  0.50137908  0.45911644    -0.90100
O1144       O  0.02112753  0.43635715  0.45092001    -0.92900
C1145       C  0.87743625  0.48829920  0.45803582     1.00800
C1146       C  0.87019796  0.35419054  0.45638230     1.13800
C1147       C  0.97302023  0.50211034  0.47656214     1.04500
O1148       O  0.02465753  0.59452539  0.46420777    -0.95100
O1149       O  0.09551405  0.58614974  0.45989194    -0.90800
O1150       O  0.11052738  0.56947465  0.45063649    -0.84000
C1151       C  0.11827815  0.59311899  0.45522924     1.11200
O1152       O  0.99634783  0.38618660  0.47018372    -0.97100
Zr1153     Zr  0.02685249  0.43365605  0.46180606     1.88900
O1154       O  0.10872109  0.49192226  0.45016780    -0.73700
O1155       O  0.08337311  0.56309561  0.47128129    -0.53000
O1156       O  0.06617985  0.45237115  0.47125137    -0.97700
O1157       O  0.02077052  0.37073346  0.45893470    -0.54900
O1158       O  0.09407669  0.45427714  0.45880692    -0.74200
C1159       C  0.11741584  0.47479732  0.45441820     0.98100
O1160       O  0.08305572  0.54706493  0.43913356    -0.63000
O1161       O  0.90946801  0.40501729  0.43946524    -0.57800
O1162       O  0.05178992  0.46795866  0.43881368    -0.94500
O1163       O  0.99092919  0.41349636  0.43841905    -0.93000
O1164       O  0.91249756  0.48913761  0.44090796    -0.93300
O1165       O  0.98594829  0.55422006  0.43997249    -0.92100
C1166       C  0.02565617  0.43602787  0.43619520     1.17000
H1167       H  0.89802407  0.43530019  0.45099304     0.32900
H1168       H  0.04168863  0.56809614  0.45115970     0.43800
H1169       H  0.03223557  0.42223998  0.44891210     0.37300
H1170       H  0.00037651  0.46498467  0.47082104     0.33800
H1171       H  0.95073443  0.58170932  0.44847589     0.25500
H1172       H  0.08100248  0.58439250  0.47333494     0.31500
H1173       H  0.08223694  0.48143558  0.47106176     0.37400
H1174       H  0.90172871  0.50718123  0.44073186     0.31900
H1175       H  0.92614989  0.42510018  0.43637596     0.30700
H1176       H  0.93197304  0.33744413  0.44227768     0.32400
H1177       H  0.04316767  0.37739124  0.45612871     0.31400
H1178       H  0.00499789  0.54714219  0.43826815     0.35400
H1179       H  0.06335069  0.53444023  0.43578826     0.28100
H1180       H  0.87598551  0.41398717  0.47329788     0.32300
H1181       H  0.01374602  0.37505735  0.47092186     0.35200
H1182       H  0.90235733  0.37954592  0.43748076     0.27800
H1183       H  0.08184006  0.57107096  0.44013249     0.40700
H1184       H  0.05159859  0.61639761  0.46507378     0.30700
H1185       H  0.97010946  0.58458790  0.45493686     0.38400
H1186       H  0.99722602  0.35798104  0.45623427     0.30200
H1187       H  0.07527366  0.54230570  0.47446188     0.30300
H1188       H  0.90444763  0.39682656  0.47409747     0.30500
Zr1189     Zr  0.15390932  0.26433644  0.28124582     2.17500
O1190       O  0.11161064  0.23809885  0.27217046    -0.51800
O1191       O  0.16720145  0.21113732  0.28260242    -0.75000
O1192       O  0.19289217  0.27251136  0.27207232    -0.81800
O1193       O  0.06468029  0.22671011  0.29152217    -0.83600
O1194       O  0.24844072  0.33259802  0.27233908    -0.79200
O1195       O  0.08652517  0.21095518  0.28284519    -0.90800
O1196       O  0.20759867  0.22573430  0.29091831    -0.76800
O1197       O  0.22127623  0.29787224  0.28432018    -0.86300
O1198       O  0.15405285  0.25499157  0.29212517    -0.86000
O1199       O  0.18022361  0.33180138  0.27828103    -0.72700
O1200       O  0.11638556  0.29100885  0.28561254    -0.84900
Zr1201     Zr  0.20881945  0.38397379  0.29718009     2.26400
Zr1202     Zr  0.24704349  0.36567008  0.28186347     2.06300
Zr1203     Zr  0.11806167  0.28324135  0.29654919     2.10000
Zr1204     Zr  0.22148733  0.28887258  0.29513062     1.78800
O1205       O  0.06320118  0.29375959  0.29879735    -0.93700
O1206       O  0.28565899  0.29831745  0.29221252    -0.41500
O1207       O  0.18525471  0.31652349  0.29967033    -0.78100
O1208       O  0.24793422  0.35753065  0.29287931    -0.96800
O1209       O  0.21000478  0.39318468  0.28622436    -0.90100
O1210       O  0.14183479  0.35056622  0.29389701    -0.92900
C1211       C  0.18701823  0.20308782  0.28645141     1.00800
C1212       C  0.05954528  0.20475278  0.28680518     1.13800
C1213       C  0.22579756  0.29897258  0.26978214     1.04500
O1214       O  0.31076059  0.36923440  0.28138023    -0.95100
O1215       O  0.29693409  0.42860007  0.28607165    -0.90800
O1216       O  0.27618963  0.43609929  0.29553167    -0.84000
C1217       C  0.30164940  0.44751209  0.29116022     1.11200
O1218       O  0.10483767  0.33432967  0.27339662    -0.97100
Zr1219     Zr  0.14329960  0.35834761  0.28288003     1.88900
O1220       O  0.18757176  0.43287838  0.29583108    -0.73700
O1221       O  0.26282413  0.41318805  0.27354714    -0.53000
O1222       O  0.16729014  0.40482705  0.27430373    -0.97700
O1223       O  0.07609763  0.34498495  0.28424447    -0.54900
O1224       O  0.15289222  0.41916875  0.28688838    -0.74200
C1225       C  0.16884132  0.44049624  0.29166332     0.98100
O1226       O  0.23467008  0.42559076  0.30636811    -0.63000
O1227       O  0.09186348  0.22717195  0.30358475    -0.57800
O1228       O  0.18756343  0.35862426  0.30779511    -0.94500
O1229       O  0.12874581  0.30199004  0.30736968    -0.93000
O1230       O  0.19831704  0.24412176  0.30392469    -0.93300
O1231       O  0.26696628  0.31339736  0.30386605    -0.92100
C1232       C  0.15762595  0.32933131  0.31040454     1.17000
H1233       H  0.14141975  0.22732642  0.29315000     0.32900
H1234       H  0.27452524  0.37128101  0.29445094     0.43800
H1235       H  0.12676137  0.36061462  0.29594018     0.37300
H1236       H  0.17940679  0.33385234  0.27383603     0.33800
H1237       H  0.28805198  0.27786355  0.29453568     0.25500
H1238       H  0.28553208  0.41413435  0.27138883     0.31500
H1239       H  0.19393917  0.42556841  0.27558879     0.37400
H1240       H  0.16944385  0.23303535  0.30395624     0.31900
H1241       H  0.06450033  0.22076421  0.30443418     0.30700
H1242       H  0.04118206  0.26738406  0.29989960     0.32400
H1243       H  0.07686574  0.35967776  0.28802087     0.31400
H1244       H  0.25476321  0.32334172  0.30683818     0.35400
H1245       H  0.26037600  0.42758198  0.30724900     0.28100
H1246       H  0.11757300  0.21839323  0.27039360     0.32300
H1247       H  0.09872076  0.30667611  0.27304235     0.35200
H1248       H  0.08913218  0.20470735  0.30110346     0.27800
H1249       H  0.24125497  0.45231936  0.30502342     0.40700
H1250       H  0.32440487  0.38688845  0.27784316     0.30700
H1251       H  0.28269935  0.28965440  0.28783975     0.38400
H1252       H  0.06100199  0.31695601  0.28547889     0.30200
H1253       H  0.24073618  0.40002019  0.27057561     0.30300
H1254       H  0.12219221  0.25992246  0.26913859     0.30500
Zr1255     Zr  0.11460430  0.25948689  0.37014955     2.17500
O1256       O  0.06450061  0.22055926  0.36241891    -0.51800
O1257       O  0.13673182  0.21127745  0.37096752    -0.75000
O1258       O  0.13925386  0.26991376  0.35947917    -0.81800
O1259       O  0.03414207  0.21929343  0.38258984    -0.83600
O1260       O  0.19412046  0.33017008  0.35913530    -0.79200
O1261       O  0.05212764  0.20484483  0.37338665    -0.90800
O1262       O  0.17935786  0.23095723  0.37904254    -0.76800
O1263       O  0.18324987  0.29530560  0.37233895    -0.86300
O1264       O  0.12102385  0.25486966  0.38107753    -0.86000
O1265       O  0.13450660  0.32548376  0.36691751    -0.72700
O1266       O  0.07856823  0.28732705  0.37499202    -0.84900
Zr1267     Zr  0.17679256  0.38547207  0.38496682     2.26400
Zr1268     Zr  0.20351723  0.36108756  0.36920125     2.06300
Zr1269     Zr  0.08648039  0.28348573  0.38593632     2.10000
Zr1270     Zr  0.18935218  0.29183282  0.38328615     1.78800
O1271       O  0.02250932  0.27668891  0.38812279    -0.93700
O1272       O  0.25583287  0.30570417  0.38094521    -0.41500
O1273       O  0.15505779  0.31975929  0.38842202    -0.78100
O1274       O  0.21269151  0.35801962  0.38011601    -0.96800
O1275       O  0.16956556  0.39006345  0.37410678    -0.90100
O1276       O  0.10806440  0.34956763  0.38282642    -0.92900
C1277       C  0.15965890  0.20673685  0.37471786     1.00800
C1278       C  0.02830805  0.19652357  0.37794109     1.13800
C1279       C  0.16801255  0.29822597  0.35654926     1.04500
O1280       O  0.26375391  0.35871927  0.36771012    -0.95100
O1281       O  0.25462674  0.42601531  0.37233947    -0.90800
O1282       O  0.23968583  0.44058022  0.38179246    -0.84000
C1283       C  0.26226915  0.44863132  0.37706086     1.11200
O1284       O  0.05198103  0.32858371  0.36378945    -0.97100
Zr1285     Zr  0.10106210  0.35428577  0.37203632     1.88900
O1286       O  0.16301927  0.43819903  0.38331859    -0.73700
O1287       O  0.21885510  0.40780631  0.36075053    -0.53000
O1288       O  0.12123360  0.39598819  0.36286867    -0.97700
O1289       O  0.03677682  0.34264968  0.37539732    -0.54900
O1290       O  0.11795178  0.41982799  0.37558325    -0.74200
C1291       C  0.14140868  0.44469621  0.37960664     0.98100
O1292       O  0.22224300  0.41362632  0.39367997    -0.63000
O1293       O  0.08149990  0.24236068  0.39472915    -0.57800
O1294       O  0.14305822  0.38184800  0.39464294    -0.94500
O1295       O  0.08951663  0.32043738  0.39517308    -0.93000
O1296       O  0.16774291  0.24764207  0.39216103    -0.93300
O1297       O  0.23483667  0.31705019  0.39200933    -0.92100
C1298       C  0.11170778  0.35531045  0.39733415     1.17000
H1299       H  0.11028971  0.22779963  0.38235013     0.32900
H1300       H  0.24027370  0.37324729  0.38115488     0.43800
H1301       H  0.09420887  0.36035664  0.38503008     0.37300
H1302       H  0.12966740  0.32645125  0.36255460     0.33800
H1303       H  0.25674601  0.28230732  0.38243174     0.25500
H1304       H  0.23856549  0.40569800  0.35816792     0.31500
H1305       H  0.14733614  0.41865083  0.36393541     0.37400
H1306       H  0.17645591  0.22840887  0.39128898     0.31900
H1307       H  0.05572692  0.23479986  0.39662915     0.30700
H1308       H  0.01216191  0.25837566  0.39167850     0.32400
H1309       H  0.04203399  0.36000112  0.37903058     0.31400
H1310       H  0.25221806  0.34541155  0.39113089     0.35400
H1311       H  0.21183917  0.39291449  0.39690061     0.28100
H1312       H  0.07445760  0.20542720  0.36013251     0.32300
H1313       H  0.04418348  0.34874634  0.36314628     0.35200
H1314       H  0.07790693  0.21766145  0.39288524     0.27800
H1315       H  0.24679052  0.41463590  0.39230341     0.40700
H1316       H  0.28109081  0.38266875  0.36529255     0.30700
H1317       H  0.25655005  0.30409711  0.37637792     0.38400
H1318       H  0.02352516  0.31567132  0.37712372     0.30200
H1319       H  0.19479102  0.39661373  0.35815967     0.30300
H1320       H  0.06483544  0.23967053  0.35939091     0.30500
Zr1321     Zr  0.11382727  0.83631895  0.28150091     2.17500
O1322       O  0.12475899  0.87801649  0.27249297    -0.51800
O1323       O  0.04761029  0.82257254  0.28325742    -0.75000
O1324       O  0.08079479  0.79704220  0.27231890    -0.81800
O1325       O  0.16524445  0.92404413  0.29229244    -0.83600
O1326       O  0.08248995  0.74002650  0.27270991    -0.79200
O1327       O  0.13060732  0.90442619  0.28329108    -0.90800
O1328       O  0.02129491  0.77608079  0.29076671    -0.76800
O1329       O  0.08085674  0.76888617  0.28448188    -0.86300
O1330       O  0.10573640  0.83529236  0.29245723    -0.86000
O1331       O  0.15534991  0.81118415  0.27821796    -0.72700
O1332       O  0.17849068  0.87320455  0.28581138    -0.84900
Zr1333     Zr  0.18104430  0.77949299  0.29671267     2.26400
Zr1334     Zr  0.12278142  0.74387132  0.28157347     2.06300
Zr1335     Zr  0.17053058  0.87047336  0.29678028     2.10000
Zr1336     Zr  0.07325485  0.76775464  0.29534971     1.78800
O1337       O  0.23619238  0.92596535  0.29867346    -0.93700
O1338       O  0.01937946  0.70056366  0.29383990    -0.41500
O1339       O  0.13775834  0.80306580  0.29961599    -0.78100
O1340       O  0.11492786  0.74130792  0.29261320    -0.96800
O1341       O  0.18807592  0.78022301  0.28574731    -0.90100
O1342       O  0.21401910  0.84721215  0.29380676    -0.92900
C1343       C  0.01898333  0.79863660  0.28668102     1.00800
C1344       C  0.15000166  0.93036417  0.28748412     1.13800
C1345       C  0.07200087  0.76298891  0.27016512     1.04500
O1346       O  0.06420014  0.67890752  0.28097725    -0.95100
O1347       O  0.13619912  0.69284453  0.28507348    -0.90800
O1348       O  0.16757872  0.71345833  0.29431633    -0.84000
C1349       C  0.15254775  0.68826257  0.28991361     1.11200
O1350       O  0.23493174  0.89207569  0.27402080    -0.97100
Zr1351     Zr  0.21953288  0.84759444  0.28276719     1.88900
O1352       O  0.25089211  0.80081499  0.29523393    -0.73700
O1353       O  0.15619099  0.73609979  0.27265303    -0.53000
O1354       O  0.23586586  0.82158505  0.27370730    -0.97700
O1355       O  0.27474723  0.91430479  0.28407689    -0.54900
O1356       O  0.27219139  0.83901080  0.28665565    -0.74200
C1357       C  0.27742797  0.82114069  0.29118931     0.98100
O1358       O  0.19332249  0.74804813  0.30551424    -0.63000
O1359       O  0.14339705  0.89604930  0.30444455    -0.57800
O1360       O  0.18078799  0.79884097  0.30754155    -0.94500
O1361       O  0.17840589  0.85542304  0.30740524    -0.93000
O1362       O  0.05147391  0.79442839  0.30363859    -0.93300
O1363       O  0.05939067  0.73187906  0.30507887    -0.92100
C1364       C  0.17974041  0.82748658  0.31028944     1.17000
H1365       H  0.09063391  0.84754920  0.29364293     0.32900
H1366       H  0.10263986  0.71447824  0.29406798     0.43800
H1367       H  0.23927233  0.86203038  0.29584357     0.37300
H1368       H  0.15764965  0.81239228  0.27376124     0.33800
H1369       H  0.01268911  0.69902687  0.28938832     0.25500
H1370       H  0.17828983  0.73392056  0.27442977     0.31500
H1371       H  0.26113460  0.82299868  0.27472777     0.37400
H1372       H  0.07594630  0.81302974  0.30585433     0.31900
H1373       H  0.16233370  0.92466516  0.30468108     0.30700
H1374       H  0.23177943  0.94490998  0.30107586     0.32400
H1375       H  0.28594198  0.91439766  0.28819068     0.31400
H1376       H  0.08552284  0.74160285  0.30702497     0.35400
H1377       H  0.16866890  0.72268573  0.30613558     0.28100
H1378       H  0.09816567  0.87165708  0.27109658     0.32300
H1379       H  0.20973433  0.89089716  0.27301917     0.35200
H1380       H  0.11961438  0.89402245  0.30249276     0.27800
H1381       H  0.21275014  0.74075812  0.30405670     0.40700
H1382       H  0.06967954  0.66525490  0.27759846     0.30700
H1383       H  0.03139062  0.68371260  0.29426390     0.38400
H1384       H  0.26251668  0.93088088  0.28464652     0.30200
H1385       H  0.13773428  0.70941659  0.27105121     0.30300
H1386       H  0.13463198  0.86760681  0.26920220     0.30500
Zr1387     Zr  0.14338316  0.86609245  0.37025411     2.17500
O1388       O  0.13684514  0.90953692  0.36285979    -0.51800
O1389       O  0.07258989  0.84151355  0.37131029    -0.75000
O1390       O  0.13654437  0.84357701  0.35940826    -0.81800
O1391       O  0.18438808  0.95000116  0.38222008    -0.83600
O1392       O  0.14291538  0.78928787  0.35914581    -0.79200
O1393       O  0.15837091  0.93239239  0.37256859    -0.90800
O1394       O  0.05017297  0.80248346  0.37978253    -0.76800
O1395       O  0.11220088  0.79774541  0.37249670    -0.86300
O1396       O  0.13090185  0.86012225  0.38115995    -0.86000
O1397       O  0.19204432  0.84898043  0.36724723    -0.72700
O1398       O  0.20631201  0.90444581  0.37534509    -0.84900
Zr1399     Zr  0.20768150  0.80722730  0.38543842     2.26400
Zr1400     Zr  0.15984673  0.77985015  0.36952018     2.06300
Zr1401     Zr  0.19326264  0.89683788  0.38624250     2.10000
Zr1402     Zr  0.10141174  0.79183162  0.38343395     1.78800
O1403       O  0.24717896  0.96207526  0.38889897    -0.93700
O1404       O  0.04672935  0.72777776  0.38042121    -0.41500
O1405       O  0.16268422  0.82818925  0.38877259    -0.78100
O1406       O  0.14549112  0.77015600  0.38035130    -0.96800
O1407       O  0.22174806  0.81557755  0.37467196    -0.90100
O1408       O  0.23904976  0.87622529  0.38341694    -0.92900
C1409       C  0.04548506  0.82044733  0.37523248     1.00800
C1410       C  0.17158664  0.95651771  0.37712941     1.13800
C1411       C  0.13769225  0.81549356  0.35648396     1.04500
O1412       O  0.09701495  0.72137881  0.36721969    -0.95100
O1413       O  0.17121494  0.72778733  0.37296654    -0.90800
O1414       O  0.19970742  0.74344090  0.38249479    -0.84000
C1415       C  0.18519698  0.72017983  0.37780749     1.11200
O1416       O  0.27630336  0.93909695  0.36550751    -0.97100
Zr1417     Zr  0.25288056  0.88416235  0.37271978     1.88900
O1418       O  0.27483264  0.82236464  0.38404297    -0.73700
O1419       O  0.19590488  0.76271558  0.36214995    -0.53000
O1420       O  0.27639228  0.86920613  0.36324125    -0.97700
O1421       O  0.30746534  0.94536941  0.37675833    -0.54900
O1422       O  0.30013434  0.86511127  0.37601204    -0.74200
C1423       C  0.30225173  0.84284927  0.38016358     0.98100
O1424       O  0.19014194  0.76039128  0.39394767    -0.63000
O1425       O  0.15224530  0.90106466  0.39434345    -0.57800
O1426       O  0.23522872  0.84166447  0.39511060    -0.94500
O1427       O  0.22833291  0.89587765  0.39553257    -0.93000
O1428       O  0.07889903  0.80807775  0.39291017    -0.93300
O1429       O  0.08366384  0.74037408  0.39113035    -0.92100
C1430       C  0.24028027  0.87323755  0.39775206     1.17000
H1431       H  0.11403965  0.87045007  0.38231928     0.32900
H1432       H  0.13328316  0.74259012  0.38139380     0.43800
H1433       H  0.26339813  0.89051433  0.38569967     0.37300
H1434       H  0.19954699  0.85454928  0.36295711     0.33800
H1435       H  0.02335784  0.72599287  0.38248229     0.25500
H1436       H  0.17635159  0.74607577  0.35897987     0.31500
H1437       H  0.27644123  0.84450094  0.36414872     0.37400
H1438       H  0.06676216  0.82370099  0.39156044     0.31900
H1439       H  0.16156369  0.89518710  0.39824261     0.30700
H1440       H  0.23724510  0.97074722  0.39242596     0.32400
H1441       H  0.32105864  0.93742336  0.37980169     0.31400
H1442       H  0.10766891  0.74966347  0.39368550     0.35400
H1443       H  0.18348579  0.77203515  0.39748507     0.28100
H1444       H  0.11231870  0.89280214  0.36051110     0.32300
H1445       H  0.30352752  0.94593546  0.36443433     0.35200
H1446       H  0.16094376  0.92945489  0.39464078     0.27800
H1447       H  0.16453379  0.73748759  0.39273869     0.40700
H1448       H  0.10403610  0.70391259  0.36492286     0.30700
H1449       H  0.04256103  0.73032760  0.37596233     0.38400
H1450       H  0.29484931  0.95704325  0.37928660     0.30200
H1451       H  0.21367399  0.78762310  0.35998383     0.30300
H1452       H  0.15843530  0.91733740  0.35983207     0.30500
Zr1453     Zr  0.72679864  0.86993044  0.28139870     2.17500
O1454       O  0.75098107  0.85156918  0.27232731    -0.51800
O1455       O  0.78110398  0.93656416  0.28249190    -0.75000
O1456       O  0.72042427  0.90226142  0.27219427    -0.81800
O1457       O  0.76358963  0.82256811  0.29280709    -0.83600
O1458       O  0.65945614  0.89554620  0.27214413    -0.79200
O1459       O  0.77865610  0.85454727  0.28355777    -0.90800
O1460       O  0.76361906  0.96585186  0.28991332    -0.76800
O1461       O  0.69071322  0.90238471  0.28362185    -0.86300
O1462       O  0.73573349  0.88455627  0.29219429    -0.86000
O1463       O  0.65981921  0.82463716  0.27851038    -0.72700
O1464       O  0.70103320  0.80826599  0.28666989    -0.84900
Zr1465     Zr  0.60519290  0.80957560  0.29708025     2.26400
Zr1466     Zr  0.62349762  0.85678394  0.28113461     2.06300
Zr1467     Zr  0.70777916  0.82286020  0.29748378     2.10000
Zr1468     Zr  0.70013479  0.91751561  0.29429611     1.78800
O1469       O  0.70017673  0.76025585  0.30090829    -0.93700
O1470       O  0.68868618  0.97003570  0.29084770    -0.41500
O1471       O  0.67223912  0.85603496  0.29962695    -0.78100
O1472       O  0.63160702  0.87286726  0.29198333    -0.96800
O1473       O  0.59688277  0.79479430  0.28628953    -0.90100
O1474       O  0.64088061  0.77651375  0.29493663    -0.92900
C1475       C  0.78777269  0.96628473  0.28584350     1.00800
C1476       C  0.78465225  0.83568676  0.28789839     1.13800
C1477       C  0.69394488  0.90851259  0.26982822     1.04500
O1478       O  0.60542617  0.90554621  0.27819291    -0.95100
O1479       O  0.55963216  0.84484863  0.28477748    -0.90800
O1480       O  0.55272847  0.82315485  0.29467328    -0.84000
C1481       C  0.54066012  0.83359137  0.28991398     1.11200
O1482       O  0.66159987  0.74383432  0.27556697    -0.97100
Zr1483     Zr  0.63430174  0.76371780  0.28404362     1.88900
O1484       O  0.55671225  0.73874919  0.29633936    -0.73700
O1485       O  0.58311480  0.81278864  0.27285904    -0.53000
O1486       O  0.58917368  0.73423154  0.27534993    -0.97700
O1487       O  0.64783460  0.71239490  0.28747223    -0.54900
O1488       O  0.57302979  0.71379393  0.28815084    -0.74200
C1489       C  0.55037743  0.71044653  0.29262963     0.98100
O1490       O  0.56168389  0.79783712  0.30588559    -0.63000
O1491       O  0.76375332  0.85820835  0.30445699    -0.57800
O1492       O  0.62674104  0.81561443  0.30788526    -0.94500
O1493       O  0.68590810  0.81852426  0.30810004    -0.93000
O1494       O  0.74334068  0.94054316  0.30330821    -0.93300
O1495       O  0.67872636  0.94482405  0.30254443    -0.92100
C1496       C  0.65644845  0.81785443  0.31079641     1.17000
H1497       H  0.76327246  0.90054208  0.29326438     0.32900
H1498       H  0.61723149  0.88597259  0.29312333     0.43800
H1499       H  0.63117594  0.75272563  0.29737363     0.37300
H1500       H  0.65829677  0.81967332  0.27412304     0.33800
H1501       H  0.71263459  0.99465717  0.29210633     0.25500
H1502       H  0.56265790  0.82003506  0.27210055     0.31500
H1503       H  0.56467254  0.73363283  0.27663627     0.37400
H1504       H  0.74413442  0.91710558  0.30479997     0.31900
H1505       H  0.77250113  0.83913567  0.30543904     0.30700
H1506       H  0.69996396  0.76125669  0.30548753     0.32400
H1507       H  0.63066621  0.69998654  0.29110565     0.31400
H1508       H  0.65947291  0.92160691  0.30493713     0.35400
H1509       H  0.56147313  0.82272531  0.30653828     0.28100
H1510       H  0.77100420  0.87678774  0.27046891     0.32300
H1511       H  0.64478578  0.71486578  0.27525236     0.35200
H1512       H  0.78518325  0.87848033  0.30188898     0.27800
H1513       H  0.53482012  0.77876223  0.30442154     0.40700
H1514       H  0.62803953  0.93107340  0.27950318     0.30700
H1515       H  0.69026275  0.96974526  0.28627527     0.38400
H1516       H  0.67480009  0.72679936  0.28920650     0.30200
H1517       H  0.59994940  0.82199303  0.26912564     0.30300
H1518       H  0.72879063  0.84054298  0.26934911     0.30500
Zr1519     Zr  0.72260406  0.83924160  0.36993667     2.17500
O1520       O  0.76113061  0.83060391  0.36185193    -0.51800
O1521       O  0.77207883  0.90916913  0.37121129    -0.75000
O1522       O  0.71142347  0.85713105  0.35956888    -0.81800
O1523       O  0.76241562  0.79313450  0.38134198    -0.83600
O1524       O  0.65217183  0.85414492  0.35962413    -0.79200
O1525       O  0.77628053  0.82815450  0.37240284    -0.90800
O1526       O  0.75618584  0.92923178  0.38004504    -0.76800
O1527       O  0.68950289  0.87334397  0.37300721    -0.86300
O1528       O  0.72875464  0.84509161  0.38094896    -0.86000
O1529       O  0.65566291  0.79661888  0.36663871    -0.72700
O1530       O  0.69278348  0.77310000  0.37401814    -0.84900
Zr1531     Zr  0.59832323  0.77445685  0.38485796     2.26400
Zr1532     Zr  0.62292092  0.83152745  0.36975270     2.06300
Zr1533     Zr  0.69812020  0.77962734  0.38506087     2.10000
Zr1534     Zr  0.69481283  0.87811549  0.38402018     1.78800
O1535       O  0.70425404  0.72091146  0.38555494    -0.93700
O1536       O  0.68955951  0.93698787  0.38268422    -0.41500
O1537       O  0.66484275  0.81357372  0.38837588    -0.78100
O1538       O  0.62816133  0.83981727  0.38076026    -0.96800
O1539       O  0.59198582  0.76658369  0.37391730    -0.90100
O1540       O  0.63120432  0.73968601  0.38190795    -0.92900
C1541       C  0.77843188  0.93523419  0.37537193     1.00800
C1542       C  0.78482588  0.81116700  0.37670217     1.13800
C1543       C  0.68333804  0.85928934  0.35686105     1.04500
O1544       O  0.62733118  0.89517416  0.36830706    -0.95100
O1545       O  0.56083995  0.82229525  0.37352590    -0.90800
O1546       O  0.54528072  0.78802935  0.38255205    -0.84000
C1547       C  0.53840029  0.80633507  0.37822017     1.11200
O1548       O  0.65346173  0.71352169  0.36257042    -0.97100
Zr1549     Zr  0.62512040  0.73228015  0.37104797     1.88900
O1550       O  0.54341986  0.70975329  0.38288519    -0.73700
O1551       O  0.57119878  0.79974601  0.36199889    -0.53000
O1552       O  0.58424182  0.71375450  0.36177010    -0.97700
O1553       O  0.62946719  0.67418931  0.37373433    -0.54900
O1554       O  0.55879881  0.68544016  0.37446858    -0.74200
C1555       C  0.53518989  0.68316382  0.37877658     0.98100
O1556       O  0.57552085  0.79193070  0.39419799    -0.63000
O1557       O  0.74000613  0.81023205  0.39404601    -0.57800
O1558       O  0.60084703  0.73891550  0.39388735    -0.94500
O1559       O  0.65983037  0.74098685  0.39402524    -0.93000
O1560       O  0.73763505  0.89238155  0.39298087    -0.93300
O1561       O  0.66699665  0.89534783  0.39273906    -0.92100
C1562       C  0.62551284  0.73020070  0.39629217     1.17000
H1563       H  0.75602734  0.85994935  0.38220489     0.32900
H1564       H  0.61445297  0.85306582  0.38217474     0.43800
H1565       H  0.61932716  0.71403903  0.38380122     0.37300
H1566       H  0.65388304  0.79211733  0.36222921     0.33800
H1567       H  0.71213815  0.95791373  0.38500732     0.25500
H1568       H  0.57192829  0.82166090  0.35961925     0.31500
H1569       H  0.56804484  0.68468438  0.36194287     0.37400
H1570       H  0.74867325  0.92087500  0.39375487     0.31900
H1571       H  0.72388460  0.81639276  0.39685542     0.30700
H1572       H  0.71522716  0.72175332  0.38971942     0.32400
H1573       H  0.60874767  0.65990644  0.37687102     0.31400
H1574       H  0.66178690  0.87514330  0.39591652     0.35400
H1575       H  0.59755420  0.80080298  0.39717996     0.28100
H1576       H  0.77637600  0.85651846  0.35979821     0.32300
H1577       H  0.63472399  0.68532321  0.36175705     0.35200
H1578       H  0.74144846  0.78851302  0.39612732     0.27800
H1579       H  0.57535388  0.81639866  0.39314102     0.40700
H1580       H  0.61280688  0.89788723  0.37184108     0.30700
H1581       H  0.69605361  0.94430455  0.37827780     0.38400
H1582       H  0.65450349  0.68458135  0.37604825     0.30200
H1583       H  0.58099355  0.78710707  0.35908509     0.30300
H1584       H  0.74190089  0.81308381  0.35871079     0.30500
Zr1585     Zr  0.88078374  0.71665061  0.21818081     2.17500
O1586       O  0.86638538  0.74451422  0.22722518    -0.51800
O1587       O  0.94634859  0.77110863  0.21667225    -0.75000
O1588       O  0.91166165  0.70883171  0.22747911    -0.81800
O1589       O  0.83234171  0.75367760  0.20715657    -0.83600
O1590       O  0.90482808  0.64778378  0.22761622    -0.79200
O1591       O  0.86311056  0.76747933  0.21650400    -0.90800
O1592       O  0.97406044  0.75550858  0.20875168    -0.76800
O1593       O  0.91476222  0.68263899  0.21547558    -0.86300
O1594       O  0.89224022  0.72533942  0.20729911    -0.86000
O1595       O  0.83833612  0.64946777  0.22112154    -0.72700
O1596       O  0.81749379  0.68937001  0.21340166    -0.84900
Zr1597     Zr  0.81782717  0.59432746  0.20245224     2.26400
Zr1598     Zr  0.87164911  0.61500272  0.21799071     2.06300
Zr1599     Zr  0.82903496  0.69620655  0.20251597     2.10000
Zr1600     Zr  0.92579464  0.69096561  0.20466522     1.78800
O1601       O  0.76505223  0.68901467  0.20018942    -0.93700
O1602       O  0.98011268  0.68111570  0.20765657    -0.41500
O1603       O  0.86257585  0.66184560  0.19980126    -0.78100
O1604       O  0.88279155  0.62233090  0.20702160    -0.96800
O1605       O  0.80761476  0.58659379  0.21335635    -0.90100
O1606       O  0.78458170  0.62905249  0.20515035    -0.92900
C1607       C  0.97493328  0.77897203  0.21299947     1.00800
C1608       C  0.84499959  0.77420999  0.21212254     1.13800
C1609       C  0.91690797  0.68207832  0.22999593     1.04500
O1610       O  0.93175960  0.61161719  0.21882052    -0.95100
O1611       O  0.85972267  0.55156568  0.21418379    -0.90800
O1612       O  0.82975942  0.54054333  0.20480620    -0.84000
C1613       C  0.84441501  0.53064926  0.20929581     1.11200
O1614       O  0.75394947  0.64894429  0.22441959    -0.97100
Zr1615     Zr  0.77568158  0.62228198  0.21612141     1.88900
O1616       O  0.74755167  0.54462072  0.20356388    -0.73700
O1617       O  0.83690827  0.56737491  0.22616608    -0.53000
O1618       O  0.75938637  0.58323070  0.22555014    -0.97700
O1619       O  0.71897008  0.62924813  0.21348714    -0.54900
O1620       O  0.72625694  0.55933088  0.21237386    -0.74200
C1621       C  0.72101989  0.53745279  0.20767011     0.98100
O1622       O  0.81195357  0.55434266  0.19340393    -0.63000
O1623       O  0.86046114  0.75083216  0.19521648    -0.57800
O1624       O  0.81622686  0.61410945  0.19172468    -0.94500
O1625       O  0.82027721  0.67385516  0.19190343    -0.93000
O1626       O  0.94889387  0.73383438  0.19563628    -0.93300
O1627       O  0.94831083  0.66677314  0.19611365    -0.92100
C1628       C  0.81781088  0.64411741  0.18901800     1.17000
H1629       H  0.90716235  0.75285523  0.20619658     0.32900
H1630       H  0.89555570  0.60806713  0.20564502     0.43800
H1631       H  0.76001930  0.61897919  0.20292973     0.37300
H1632       H  0.83465628  0.64778164  0.22555663     0.33800
H1633       H  0.00348440  0.70278547  0.20560945     0.25500
H1634       H  0.85711105  0.56256443  0.22805793     0.31500
H1635       H  0.73413164  0.55901387  0.22465174     0.37400
H1636       H  0.93692091  0.75074409  0.19601164     0.31900
H1637       H  0.83999258  0.75760954  0.19417416     0.30700
H1638       H  0.77002719  0.70738465  0.19671878     0.32400
H1639       H  0.70750487  0.61331705  0.20969622     0.31400
H1640       H  0.92437256  0.64274903  0.19467058     0.35400
H1641       H  0.83704872  0.55412607  0.19315135     0.28100
H1642       H  0.89229774  0.76310586  0.22906814     0.32300
H1643       H  0.77828862  0.67260925  0.22584676     0.35200
H1644       H  0.88022811  0.77361391  0.19764506     0.27800
H1645       H  0.79180643  0.52702100  0.19447773     0.40700
H1646       H  0.93885525  0.60941896  0.21449986     0.30700
H1647       H  0.98430770  0.68781444  0.21211720     0.38400
H1648       H  0.73045599  0.65682812  0.21207067     0.30200
H1649       H  0.83145751  0.58212745  0.22935977     0.30300
H1650       H  0.85376648  0.72261754  0.23023041     0.30500
Zr1651     Zr  0.84869148  0.71804615  0.12963167     2.17500
O1652       O  0.84261138  0.75890262  0.13760986    -0.51800
O1653       O  0.91896193  0.76670062  0.12849976    -0.75000
O1654       O  0.86062277  0.70395258  0.14021085    -0.81800
O1655       O  0.80570521  0.76012791  0.11808571    -0.83600
O1656       O  0.85598172  0.64401029  0.14028887    -0.79200
O1657       O  0.83666935  0.77134522  0.12737669    -0.90800
O1658       O  0.94200901  0.74969418  0.12011994    -0.76800
O1659       O  0.88192438  0.68327285  0.12703289    -0.86300
O1660       O  0.85930747  0.72515922  0.11870908    -0.86000
O1661       O  0.80270773  0.65130631  0.13260007    -0.72700
O1662       O  0.78459690  0.69122591  0.12489594    -0.84900
Zr1663     Zr  0.78476991  0.59539155  0.11425354     2.26400
Zr1664     Zr  0.83662425  0.61692514  0.12994088     2.06300
Zr1665     Zr  0.79592389  0.69781204  0.11396106     2.10000
Zr1666     Zr  0.89069822  0.68874305  0.11605524     1.78800
O1667       O  0.74186697  0.70986540  0.11189398    -0.93700
O1668       O  0.94431682  0.67634306  0.11845534    -0.41500
O1669       O  0.82804973  0.66198358  0.11105032    -0.78100
O1670       O  0.84843883  0.62230801  0.11899952    -0.96800
O1671       O  0.77336818  0.58859470  0.12514623    -0.90100
O1672       O  0.75183239  0.63082961  0.11676632    -0.92900
C1673       C  0.94637789  0.77262478  0.12463202     1.00800
C1674       C  0.82111338  0.78094625  0.12299114     1.13800
C1675       C  0.86083672  0.67518585  0.14302270     1.04500
O1676       O  0.89897448  0.61982308  0.13208659    -0.95100
O1677       O  0.82766409  0.55582051  0.12589932    -0.90800
O1678       O  0.79520035  0.54053940  0.11668629    -0.84000
C1679       C  0.81274438  0.53368068  0.12113569     1.11200
O1680       O  0.72104879  0.65106613  0.13609258    -0.97100
Zr1681     Zr  0.74037520  0.62375862  0.12754072     1.88900
O1682       O  0.71924386  0.54122033  0.11590505    -0.73700
O1683       O  0.80164997  0.56436932  0.13744718    -0.53000
O1684       O  0.71271120  0.58109444  0.13652693    -0.97700
O1685       O  0.68772078  0.63503654  0.12405652    -0.54900
O1686       O  0.69313181  0.55805028  0.12390222    -0.74200
C1687       C  0.69166496  0.53377796  0.11976709     0.98100
O1688       O  0.80167910  0.57057255  0.10507925    -0.63000
O1689       O  0.83558448  0.74194102  0.10566892    -0.57800
O1690       O  0.75267728  0.60014645  0.10488598    -0.94500
O1691       O  0.75965887  0.66129747  0.10475297    -0.93000
O1692       O  0.91408009  0.73327866  0.10723869    -0.93300
O1693       O  0.90732084  0.66040998  0.10732317    -0.92100
C1694       C  0.74712830  0.62681350  0.10241650     1.17000
H1695       H  0.87542405  0.75251393  0.11757499     0.32900
H1696       H  0.86130711  0.60796308  0.11772534     0.43800
H1697       H  0.72701964  0.62027166  0.11462701     0.37300
H1698       H  0.79643023  0.64904180  0.13694895     0.33800
H1699       H  0.96586747  0.69354594  0.11560282     0.25500
H1700       H  0.82258904  0.56309979  0.13982097     0.31500
H1701       H  0.72351867  0.56310147  0.13633884     0.37400
H1702       H  0.94297822  0.74446534  0.10724398     0.31900
H1703       H  0.81640368  0.73847225  0.10239816     0.30700
H1704       H  0.74686605  0.72112580  0.10766933     0.32400
H1705       H  0.67358910  0.61516629  0.12078522     0.31400
H1706       H  0.88529041  0.65229688  0.10436354     0.35400
H1707       H  0.81117213  0.59216615  0.10201435     0.28100
H1708       H  0.86686967  0.77007227  0.14015267     0.32300
H1709       H  0.69192714  0.63565075  0.13622076     0.35200
H1710       H  0.84485882  0.76876164  0.10730395     0.27800
H1711       H  0.82570839  0.56978908  0.10622808     0.40700
H1712       H  0.90562683  0.61108398  0.12819855     0.30700
H1713       H  0.95389066  0.68820749  0.12259472     0.38400
H1714       H  0.70132406  0.66048460  0.12183626     0.30200
H1715       H  0.78999677  0.57487139  0.14042179     0.30300
H1716       H  0.82113796  0.74045801  0.14037289     0.30500
Zr1717     Zr  0.26925112  0.14612175  0.21854075     2.17500
O1718       O  0.24277108  0.10804168  0.22801608    -0.51800
O1719       O  0.21444476  0.15629692  0.21671936    -0.75000
O1720       O  0.27625714  0.18733916  0.22747109    -0.81800
O1721       O  0.23214289  0.05822658  0.20806003    -0.83600
O1722       O  0.33523726  0.24402813  0.22710150    -0.79200
O1723       O  0.21854840  0.07741633  0.21721824    -0.90800
O1724       O  0.22954987  0.19761625  0.20854177    -0.76800
O1725       O  0.30206265  0.21323506  0.21538940    -0.86300
O1726       O  0.26026715  0.14524490  0.20759114    -0.86000
O1727       O  0.33660525  0.17271480  0.22159417    -0.72700
O1728       O  0.29682006  0.10903227  0.21420594    -0.84900
Zr1729     Zr  0.39075298  0.20254991  0.20285382     2.26400
Zr1730     Zr  0.36969735  0.23944928  0.21803439     2.06300
Zr1731     Zr  0.29037836  0.11072058  0.20322349     2.10000
Zr1732     Zr  0.29346338  0.21257864  0.20454120     1.78800
O1733       O  0.30485465  0.05812898  0.20126717    -0.93700
O1734       O  0.29998144  0.27638487  0.20686563    -0.41500
O1735       O  0.32322674  0.17788459  0.20028636    -0.78100
O1736       O  0.36235806  0.24031633  0.20700537    -0.96800
O1737       O  0.39843858  0.20326460  0.21381456    -0.90100
O1738       O  0.35769904  0.13522477  0.20597720    -0.92900
C1739       C  0.20649946  0.17629358  0.21290047     1.00800
C1740       C  0.21143636  0.05165540  0.21297609     1.13800
C1741       C  0.30175738  0.22120247  0.22964550     1.04500
O1742       O  0.37757569  0.30508354  0.21824136    -0.95100
O1743       O  0.43430896  0.28876829  0.21441064    -0.90800
O1744       O  0.44375259  0.26885820  0.20501456    -0.84000
C1745       C  0.45461563  0.29356849  0.20949390     1.11200
O1746       O  0.33974047  0.10036048  0.22671171    -0.97100
Zr1747     Zr  0.36410654  0.13627876  0.21702925     1.88900
O1748       O  0.43933184  0.18079767  0.20427740    -0.73700
O1749       O  0.41112255  0.24878788  0.22701172    -0.53000
O1750       O  0.41449663  0.16049205  0.22506167    -0.97700
O1751       O  0.34959453  0.06853426  0.21577956    -0.54900
O1752       O  0.42423780  0.14415614  0.21301651    -0.74200
C1753       C  0.44629064  0.16108388  0.20836013     0.98100
O1754       O  0.43321241  0.23353518  0.19391342    -0.63000
O1755       O  0.23784575  0.07852463  0.19559878    -0.57800
O1756       O  0.36807249  0.18282305  0.19207827    -0.94500
O1757       O  0.30811909  0.12748188  0.19239841    -0.93000
O1758       O  0.25063670  0.18764133  0.19550034    -0.93300
O1759       O  0.31684627  0.25507439  0.19548345    -0.92100
C1760       C  0.33699955  0.15518125  0.18941021     1.17000
H1761       H  0.23269684  0.13192096  0.20647737     0.32900
H1762       H  0.37633903  0.26699387  0.20546832     0.43800
H1763       H  0.36831282  0.12062490  0.20394438     0.37300
H1764       H  0.33847385  0.17213425  0.22604538     0.33800
H1765       H  0.27558608  0.27465023  0.20522546     0.25500
H1766       H  0.43654592  0.25380845  0.22527069     0.31500
H1767       H  0.43452748  0.18720498  0.22369287     0.37400
H1768       H  0.22681421  0.16356349  0.19693650     0.31900
H1769       H  0.23080302  0.05051276  0.19564002     0.30700
H1770       H  0.31060831  0.05991970  0.19677850     0.32400
H1771       H  0.35713115  0.06686167  0.21146533     0.31400
H1772       H  0.33386970  0.24704117  0.19329058     0.35400
H1773       H  0.43324160  0.25851685  0.19323488     0.28100
H1774       H  0.22481241  0.11640279  0.22977882     0.32300
H1775       H  0.31084464  0.08456257  0.22615158     0.35200
H1776       H  0.21482049  0.07879750  0.19741130     0.27800
H1777       H  0.46025940  0.24156470  0.19530705     0.40700
H1778       H  0.37272406  0.31005517  0.21392630     0.30700
H1779       H  0.29722931  0.27663398  0.21141996     0.38400
H1780       H  0.32050383  0.05248521  0.21579627     0.30200
H1781       H  0.41682869  0.27441005  0.22877964     0.30300
H1782       H  0.26526150  0.11822142  0.23093324     0.30500
Zr1783     Zr  0.27006070  0.11523053  0.12976132     2.17500
O1784       O  0.22281773  0.06999599  0.13729136    -0.51800
O1785       O  0.22399088  0.13963322  0.12816651    -0.75000
O1786       O  0.28203477  0.14201980  0.14033987    -0.81800
O1787       O  0.23091624  0.02739702  0.11844207    -0.83600
O1788       O  0.34127121  0.19825719  0.14050075    -0.79200
O1789       O  0.21728366  0.04942381  0.12730154    -0.90800
O1790       O  0.24446827  0.17944161  0.11976316    -0.76800
O1791       O  0.30644424  0.18277857  0.12688663    -0.86300
O1792       O  0.26584038  0.11664180  0.11874424    -0.86000
O1793       O  0.33573559  0.13566349  0.13338031    -0.72700
O1794       O  0.29758640  0.07656661  0.12579013    -0.84900
Zr1795     Zr  0.39668094  0.17073003  0.11545553     2.26400
Zr1796     Zr  0.37165604  0.20374190  0.13050572     2.06300
Zr1797     Zr  0.29422712  0.07948661  0.11473823     2.10000
Zr1798     Zr  0.30355050  0.18382006  0.11583253     1.78800
O1799       O  0.28788550  0.01493751  0.11337921    -0.93700
O1800       O  0.31734118  0.25154487  0.11661452    -0.41500
O1801       O  0.33140276  0.14700942  0.11158935    -0.78100
O1802       O  0.36911403  0.20863677  0.11946598    -0.96800
O1803       O  0.40056536  0.16758437  0.12641221    -0.90100
O1804       O  0.36029946  0.10266125  0.11811911    -0.92900
C1805       C  0.22041752  0.16213502  0.12420058     1.00800
C1806       C  0.20875090  0.02326180  0.12308888     1.13800
C1807       C  0.30998521  0.17180700  0.14317785     1.04500
O1808       O  0.37059756  0.26468452  0.13210172    -0.95100
O1809       O  0.43576791  0.25445486  0.12709025    -0.90800
O1810       O  0.45201094  0.23503160  0.11819102    -0.84000
C1811       C  0.45911151  0.26001785  0.12256259     1.11200
O1812       O  0.33522571  0.05388672  0.13759780    -0.97100
Zr1813     Zr  0.36432695  0.09978827  0.12900051     1.88900
O1814       O  0.44895220  0.15723793  0.11760435    -0.73700
O1815       O  0.42104147  0.22026975  0.13857621    -0.53000
O1816       O  0.40520991  0.11816262  0.13826964    -0.97700
O1817       O  0.35431714  0.03520970  0.12616614    -0.54900
O1818       O  0.43047211  0.11624365  0.12587683    -0.74200
C1819       C  0.45537136  0.13754949  0.12170175     0.98100
O1820       O  0.42667782  0.21456304  0.10663037    -0.63000
O1821       O  0.24890157  0.06929486  0.10628747    -0.57800
O1822       O  0.39195750  0.13291065  0.10623779    -0.94500
O1823       O  0.33073517  0.07902501  0.10562789    -0.93000
O1824       O  0.25854983  0.15564334  0.10709418    -0.93300
O1825       O  0.33091469  0.22386570  0.10657767    -0.92100
C1826       C  0.36585569  0.10114619  0.10356384     1.17000
H1827       H  0.23878229  0.10542589  0.11740534     0.32900
H1828       H  0.38441098  0.23572344  0.11815691     0.43800
H1829       H  0.37122065  0.08800481  0.11619760     0.37300
H1830       H  0.33680550  0.13223847  0.13778653     0.33800
H1831       H  0.29499149  0.25162871  0.11449432     0.25500
H1832       H  0.42480598  0.24503452  0.14042479     0.31500
H1833       H  0.42383025  0.14671346  0.13780983     0.37400
H1834       H  0.23811088  0.16300408  0.10776273     0.31900
H1835       H  0.26490785  0.08989010  0.10322100     0.30700
H1836       H  0.26838795  0.00234957  0.11000462     0.32400
H1837       H  0.37679788  0.04050194  0.12346419     0.31400
H1838       H  0.34217395  0.21034060  0.10417659     0.35400
H1839       H  0.40887810  0.20136715  0.10308062     0.28100
H1840       H  0.21145681  0.08462294  0.13934343     0.32300
H1841       H  0.35231498  0.04229785  0.13824214     0.35200
H1842       H  0.24379011  0.04437618  0.10431535     0.27800
H1843       H  0.42324508  0.23746191  0.10749048     0.40700
H1844       H  0.38455897  0.28128965  0.12848250     0.30700
H1845       H  0.31359209  0.25515508  0.12105046     0.38400
H1846       H  0.33122032  0.02379156  0.12337134     0.30200
H1847       H  0.40783939  0.20021750  0.14184748     0.30300
H1848       H  0.23864640  0.06637282  0.14052293     0.30500
Zr1849     Zr  0.84007546  0.10267571  0.21859327     2.17500
O1850       O  0.88305596  0.11519453  0.22750057    -0.51800
O1851       O  0.82625262  0.03581724  0.21697793    -0.75000
O1852       O  0.80173581  0.07265437  0.22785924    -0.81800
O1853       O  0.92658342  0.15162165  0.20789974    -0.83600
O1854       O  0.74678164  0.07814566  0.22780535    -0.79200
O1855       O  0.90777380  0.11814947  0.21697094    -0.90800
O1856       O  0.78214078  0.00959409  0.20911874    -0.76800
O1857       O  0.77214857  0.07012246  0.21582707    -0.86300
O1858       O  0.83817151  0.09293395  0.20768521    -0.86000
O1859       O  0.81638451  0.14591390  0.22172218    -0.72700
O1860       O  0.87728194  0.16685348  0.21415853    -0.84900
Zr1861     Zr  0.78405267  0.16854242  0.20294793     2.26400
Zr1862     Zr  0.74877370  0.11404985  0.21847189     2.06300
Zr1863     Zr  0.87398909  0.15714269  0.20321882     2.10000
Zr1864     Zr  0.77022427  0.06031824  0.20499713     1.78800
O1865       O  0.93009051  0.22243629  0.20130768    -0.93700
O1866       O  0.70508803  0.00629021  0.20766646    -0.41500
O1867       O  0.80644543  0.12380828  0.20035563    -0.78100
O1868       O  0.74540340  0.10367130  0.20747476    -0.96800
O1869       O  0.78527641  0.17794173  0.21389468    -0.90100
O1870       O  0.85175242  0.20181745  0.20590092    -0.92900
C1871       C  0.80419220  0.00745551  0.21331708     1.00800
C1872       C  0.93330540  0.13699912  0.21272834     1.13800
C1873       C  0.76932408  0.06682241  0.23026365     1.04500
O1874       O  0.68271820  0.05738055  0.21934607    -0.95100
O1875       O  0.69951532  0.12951653  0.21475134    -0.90800
O1876       O  0.71919684  0.15847905  0.20533211    -0.84000
C1877       C  0.69463597  0.14499661  0.20982829     1.11200
O1878       O  0.89353779  0.23041329  0.22616242    -0.97100
Zr1879     Zr  0.85242399  0.20911047  0.21691980     1.88900
O1880       O  0.80717263  0.23938236  0.20388169    -0.73700
O1881       O  0.73874150  0.14793005  0.22713369    -0.53000
O1882       O  0.82572227  0.22998154  0.22533713    -0.97700
O1883       O  0.92092993  0.26057299  0.21575727    -0.54900
O1884       O  0.84490343  0.26104646  0.21254085    -0.74200
C1885       C  0.82803217  0.26631970  0.20787170     0.98100
O1886       O  0.75016862  0.17353786  0.19380689    -0.63000
O1887       O  0.89969467  0.12934098  0.19569206    -0.57800
O1888       O  0.80454910  0.16649650  0.19222034    -0.94500
O1889       O  0.86189613  0.16564785  0.19251040    -0.93000
O1890       O  0.79224500  0.03655105  0.19633472    -0.93300
O1891       O  0.72647047  0.04301729  0.19609538    -0.92100
C1892       C  0.83364765  0.16585918  0.18955519     1.17000
H1893       H  0.85019617  0.07749639  0.20652919     0.32900
H1894       H  0.71847496  0.09146452  0.20606175     0.43800
H1895       H  0.86678423  0.22644536  0.20379253     0.37300
H1896       H  0.81828568  0.14916925  0.22615175     0.33800
H1897       H  0.70033178  0.98489125  0.20474170     0.25500
H1898       H  0.71532424  0.12717264  0.22930904     0.31500
H1899       H  0.80206813  0.22927343  0.22357822     0.37400
H1900       H  0.80838579  0.06024883  0.19378723     0.31900
H1901       H  0.92803819  0.14899888  0.19531171     0.30700
H1902       H  0.95186659  0.21775218  0.20018762     0.32400
H1903       H  0.92134198  0.27538772  0.21202252     0.31400
H1904       H  0.73212974  0.06864768  0.19434506     0.35400
H1905       H  0.72375205  0.14962460  0.19379593     0.28100
H1906       H  0.87727939  0.08886106  0.22893259     0.32300
H1907       H  0.89969632  0.20921411  0.22694671     0.35200
H1908       H  0.89898671  0.10655426  0.19778294     0.27800
H1909       H  0.74541271  0.19561129  0.19465607     0.40700
H1910       H  0.67520650  0.04739176  0.21506115     0.30700
H1911       H  0.70850645  0.99675571  0.21173485     0.38400
H1912       H  0.93488492  0.24652812  0.21449661     0.30200
H1913       H  0.76089916  0.15456255  0.23000217     0.30300
H1914       H  0.87284154  0.12516504  0.23080566     0.30500
Zr1915     Zr  0.88123702  0.14364078  0.12945037     2.17500
O1916       O  0.92833128  0.14601141  0.13708625    -0.51800
O1917       O  0.86000486  0.07336103  0.12830967    -0.75000
O1918       O  0.85733694  0.13285519  0.14023154    -0.81800
O1919       O  0.96299602  0.18758442  0.11704557    -0.83600
O1920       O  0.80196905  0.13728513  0.14072667    -0.79200
O1921       O  0.94668861  0.15834200  0.12649724    -0.90800
O1922       O  0.81705320  0.04970575  0.12028875    -0.76800
O1923       O  0.81257978  0.11044802  0.12735524    -0.86300
O1924       O  0.87442221  0.13237641  0.11852993    -0.86000
O1925       O  0.86177744  0.19009149  0.13268983    -0.72700
O1926       O  0.91662627  0.20735665  0.12451888    -0.84900
Zr1927     Zr  0.81676175  0.20587542  0.11478298     2.26400
Zr1928     Zr  0.79260253  0.15627380  0.13053053     2.06300
Zr1929     Zr  0.90812722  0.19517574  0.11357218     2.10000
Zr1930     Zr  0.80591023  0.10038892  0.11641601     1.78800
O1931       O  0.97233241  0.25063646  0.11089156    -0.93700
O1932       O  0.74045289  0.04911019  0.11952068    -0.41500
O1933       O  0.83922314  0.16249276  0.11120336    -0.78100
O1934       O  0.78218469  0.14269621  0.11966143    -0.96800
O1935       O  0.82548411  0.21907272  0.12559517    -0.90100
O1936       O  0.88589114  0.23914432  0.11671932    -0.92900
C1937       C  0.83729453  0.04566029  0.12455632     1.00800
C1938       C  0.97036178  0.17354353  0.12191668     1.13800
C1939       C  0.82872148  0.13232664  0.14324219     1.04500
O1940       O  0.73365186  0.09462574  0.13316365    -0.95100
O1941       O  0.73856385  0.16448239  0.12734304    -0.90800
O1942       O  0.75292676  0.19644170  0.11811565    -0.84000
C1943       C  0.73006777  0.17959908  0.12276603     1.11200
O1944       O  0.94595079  0.27865525  0.13529988    -0.97100
Zr1945     Zr  0.89427178  0.25192953  0.12745294     1.88900
O1946       O  0.83047370  0.27237906  0.11617027    -0.73700
O1947       O  0.77900117  0.19435377  0.13803869    -0.53000
O1948       O  0.87604220  0.27259474  0.13694110    -0.97700
O1949       O  0.95743363  0.30421457  0.12362613    -0.54900
O1950       O  0.87688937  0.29977089  0.12369754    -0.74200
C1951       C  0.85317939  0.30101048  0.11971239     0.98100
O1952       O  0.77014903  0.18885254  0.10625478    -0.63000
O1953       O  0.90989393  0.15317287  0.10541973    -0.57800
O1954       O  0.85082252  0.23642767  0.10518102    -0.94500
O1955       O  0.90431953  0.22871536  0.10428685    -0.93000
O1956       O  0.82411480  0.07218701  0.10786180    -0.93300
O1957       O  0.76005477  0.08129203  0.10775896    -0.92100
C1958       C  0.88169439  0.24137628  0.10231105     1.17000
H1959       H  0.88547777  0.11634936  0.11724012     0.32900
H1960       H  0.75451625  0.12976284  0.11866491     0.43800
H1961       H  0.89950798  0.26377499  0.11450028     0.37300
H1962       H  0.86714489  0.19672360  0.13702174     0.33800
H1963       H  0.73574576  0.02558234  0.11713226     0.25500
H1964       H  0.75513620  0.17471943  0.14026106     0.31500
H1965       H  0.86214674  0.28648967  0.13557166     0.37400
H1966       H  0.80349387  0.04402648  0.10776598     0.31900
H1967       H  0.88491903  0.14384636  0.10312455     0.30700
H1968       H  0.97936432  0.24307833  0.10692295     0.32400
H1969       H  0.95133634  0.32226148  0.12130539     0.31400
H1970       H  0.74979111  0.09974430  0.10792568     0.35400
H1971       H  0.78100051  0.18029977  0.10284320     0.28100
H1972       H  0.91468524  0.12085183  0.13938956     0.32300
H1973       H  0.95317204  0.30656852  0.13581929     0.35200
H1974       H  0.93047465  0.17153958  0.10253113     0.27800
H1975       H  0.74635739  0.16429964  0.10756210     0.40700
H1976       H  0.72162426  0.10143027  0.13662881     0.30700
H1977       H  0.74361458  0.04288003  0.12385084     0.38400
H1978       H  0.96527639  0.29152323  0.12040736     0.30200
H1979       H  0.80040947  0.20352106  0.14114150     0.30300
H1980       H  0.93208084  0.16658793  0.14011499     0.30500
Zr1981     Zr  0.47709870  0.53804342  0.03646307     2.17500
O1982       O  0.48037408  0.58419218  0.02859278    -0.51800
O1983       O  0.40692895  0.51512334  0.03744770    -0.75000
O1984       O  0.46402979  0.51050829  0.02586562    -0.81800
O1985       O  0.52239670  0.62379194  0.04818435    -0.83600
O1986       O  0.46546770  0.45343785  0.02604880    -0.79200
O1987       O  0.48788045  0.60276338  0.03916958    -0.90800
O1988       O  0.38397953  0.47354498  0.04564472    -0.76800
O1989       O  0.44456685  0.47011629  0.03910029    -0.86300
O1990       O  0.46763872  0.53466650  0.04743165    -0.86000
O1991       O  0.52282737  0.51738528  0.03335712    -0.72700
O1992       O  0.54146111  0.57584654  0.04111830    -0.84900
Zr1993     Zr  0.54306763  0.48005440  0.05156910     2.26400
Zr1994     Zr  0.48987569  0.44914600  0.03612705     2.06300
Zr1995     Zr  0.53145202  0.57075686  0.05211867     2.10000
Zr1996     Zr  0.43640994  0.46685721  0.05006350     1.78800
O1997       O  0.58720251  0.63611052  0.05412224    -0.93700
O1998       O  0.38723522  0.39904545  0.04761833    -0.41500
O1999       O  0.49961044  0.50282232  0.05493847    -0.78100
O2000       O  0.47879658  0.44273927  0.04706979    -0.96800
O2001       O  0.55351586  0.48498954  0.04068995    -0.90100
O2002       O  0.57548047  0.54838780  0.04909116    -0.92900
C2003       C  0.37939911  0.49210033  0.04115511     1.00800
C2004       C  0.50511003  0.62842441  0.04346765     1.13800
C2005       C  0.46157857  0.47991708  0.02319296     1.04500
O2006       O  0.42990515  0.38659233  0.03435480    -0.95100
O2007       O  0.50146184  0.39780078  0.03981072    -0.90800
O2008       O  0.53340416  0.41532962  0.04905533    -0.84000
C2009       C  0.51703745  0.39112120  0.04453978     1.11200
O2010       O  0.60256722  0.59874106  0.02961834    -0.97100
Zr2011     Zr  0.58569676  0.55309008  0.03826493     1.88900
O2012       O  0.60844250  0.49111931  0.04951644    -0.73700
O2013       O  0.52747663  0.43720415  0.02832376    -0.53000
O2014       O  0.61336271  0.53957965  0.02912320    -0.97700
O2015       O  0.63864807  0.61675619  0.04187954    -0.54900
O2016       O  0.63284589  0.53350148  0.04142642    -0.74200
C2017       C  0.63511592  0.51078249  0.04548261     0.98100
O2018       O  0.52673690  0.43848690  0.06074205    -0.63000
O2019       O  0.49127759  0.57478413  0.06036820    -0.57800
O2020       O  0.57589024  0.51675649  0.06084340    -0.94500
O2021       O  0.56721542  0.56982322  0.06139595    -0.93000
O2022       O  0.40635082  0.48351449  0.05853370    -0.93300
O2023       O  0.42017222  0.42687592  0.05938920    -0.92100
C2024       C  0.58072971  0.54815099  0.06351451     1.17000
H2025       H  0.45144210  0.54578218  0.04857962     0.32900
H2026       H  0.46645811  0.41551138  0.04832475     0.43800
H2027       H  0.60044382  0.56267476  0.05121203     0.37300
H2028       H  0.52828596  0.52086487  0.02897623     0.33800
H2029       H  0.36368368  0.39409282  0.05001186     0.25500
H2030       H  0.50749505  0.41573520  0.02570876     0.31500
H2031       H  0.60897177  0.51268587  0.02976025     0.37400
H2032       H  0.40924607  0.50927503  0.05740662     0.31900
H2033       H  0.50994024  0.59760200  0.06290526     0.30700
H2034       H  0.57974679  0.64543626  0.05786631     0.32400
H2035       H  0.65165323  0.61095622  0.04531863     0.31400
H2036       H  0.44512258  0.42823177  0.06061657     0.35400
H2037       H  0.51613620  0.44988220  0.06374777     0.28100
H2038       H  0.45517661  0.57043394  0.02628996     0.32300
H2039       H  0.63068750  0.61872359  0.03016421     0.35200
H2040       H  0.47454669  0.58370548  0.05831481     0.27800
H2041       H  0.50347966  0.41308289  0.05955686     0.40700
H2042       H  0.43796913  0.37182868  0.03157001     0.30700
H2043       H  0.37992107  0.39978254  0.04325183     0.38400
H2044       H  0.62511923  0.62943656  0.04387530     0.30200
H2045       H  0.53873586  0.46076990  0.02563400     0.30300
H2046       H  0.50071079  0.58679102  0.02561391     0.30500
Zr2047     Zr  0.44775390  0.50396141  0.94800263     2.17500
O2048       O  0.45972913  0.54564195  0.93896108    -0.51800
O2049       O  0.38087609  0.48882148  0.94982060    -0.75000
O2050       O  0.41598368  0.46453166  0.93880599    -0.81800
O2051       O  0.49387153  0.58951000  0.95913299    -0.83600
O2052       O  0.42456285  0.41143583  0.93862156    -0.79200
O2053       O  0.46057740  0.57052565  0.95000706    -0.90800
O2054       O  0.35669006  0.44493480  0.95771469    -0.76800
O2055       O  0.41767746  0.43591022  0.95052685    -0.86300
O2056       O  0.43782917  0.50024072  0.95892909    -0.86000
O2057       O  0.49350592  0.48397263  0.94469825    -0.72700
O2058       O  0.51114445  0.54263640  0.95267619    -0.84900
Zr2059     Zr  0.51768084  0.44994850  0.96325650     2.26400
Zr2060     Zr  0.46407631  0.41629941  0.94764448     2.06300
Zr2061     Zr  0.50123131  0.53715515  0.96361857     2.10000
Zr2062     Zr  0.40768610  0.43219997  0.96136620     1.78800
O2063       O  0.56505680  0.59370242  0.96620265    -0.93700
O2064       O  0.35334589  0.36783944  0.95841204    -0.41500
O2065       O  0.47084900  0.46917784  0.96606976    -0.78100
O2066       O  0.45298201  0.41032070  0.95862645    -0.96800
O2067       O  0.52765246  0.45404891  0.95231216    -0.90100
O2068       O  0.54809508  0.51810295  0.96069255    -0.92900
C2069       C  0.35355222  0.46689421  0.95362000     1.00800
C2070       C  0.47861518  0.59589640  0.95433180     1.13800
C2071       C  0.41095002  0.43247971  0.93633379     1.04500
O2072       O  0.41374371  0.34839262  0.94559392    -0.95100
O2073       O  0.47712205  0.36580663  0.95130895    -0.90800
O2074       O  0.50386179  0.38339784  0.96093659    -0.84000
C2075       C  0.49038829  0.35944260  0.95633829     1.11200
O2076       O  0.57223386  0.56682574  0.94097323    -0.97100
Zr2077     Zr  0.55615557  0.52177829  0.94967723     1.88900
O2078       O  0.58895255  0.47608931  0.96205843    -0.73700
O2079       O  0.50439531  0.41590195  0.93911862    -0.53000
O2080       O  0.58090102  0.50192487  0.94084875    -0.97700
O2081       O  0.60556567  0.58974427  0.95200257    -0.54900
O2082       O  0.60963373  0.51493837  0.95354743    -0.74200
C2083       C  0.61553665  0.49769676  0.95809378     0.98100
O2084       O  0.53891361  0.42348819  0.97169927    -0.63000
O2085       O  0.46904297  0.55768809  0.97121090    -0.57800
O2086       O  0.50871232  0.46464776  0.97410379    -0.94500
O2087       O  0.50692732  0.52153243  0.97430488    -0.93000
O2088       O  0.38496291  0.45208404  0.97042803    -0.93300
O2089       O  0.39005863  0.38500018  0.96976872    -0.92100
C2090       C  0.50641293  0.49220577  0.97702985     1.17000
H2091       H  0.42173216  0.51128290  0.96018568     0.32900
H2092       H  0.44077256  0.38314498  0.95989930     0.43800
H2093       H  0.57268345  0.53351799  0.96286174     0.37300
H2094       H  0.49677663  0.48650324  0.94026071     0.33800
H2095       H  0.32987485  0.36640832  0.96037681     0.25500
H2096       H  0.52370130  0.41005017  0.94108186     0.31500
H2097       H  0.58495635  0.48051942  0.94241952     0.37400
H2098       H  0.40925211  0.46985318  0.97275561     0.31900
H2099       H  0.48983405  0.58400739  0.97262166     0.30700
H2100       H  0.56562070  0.61625680  0.96405518     0.32400
H2101       H  0.62107314  0.58817384  0.95549496     0.31400
H2102       H  0.41536585  0.38746544  0.97109299     0.35400
H2103       H  0.51554490  0.39798734  0.97279812     0.28100
H2104       H  0.43330667  0.53951301  0.93750993     0.32300
H2105       H  0.60013824  0.57605375  0.93996980     0.35200
H2106       H  0.45036301  0.56269926  0.96884999     0.27800
H2107       H  0.55754451  0.41635198  0.96983316     0.40700
H2108       H  0.39184034  0.34353056  0.94840047     0.30700
H2109       H  0.34952707  0.36998670  0.95392678     0.38400
H2110       H  0.59054967  0.60137357  0.95382466     0.30200
H2111       H  0.48671754  0.39175364  0.93675261     0.30300
H2112       H  0.46963909  0.53500328  0.93571144     0.30500
Zr2113     Zr  0.05844006  0.51214750  0.03654637     2.17500
O2114       O  0.10224629  0.50772895  0.02898389    -0.51800
O2115       O  0.10534917  0.58297445  0.03736819    -0.75000
O2116       O  0.04528346  0.52590928  0.02599682    -0.81800
O2117       O  0.09586590  0.46247614  0.04763746    -0.83600
O2118       O  0.98781594  0.52651141  0.02623628    -0.79200
O2119       O  0.11202123  0.50080831  0.03903257    -0.90800
O2120       O  0.08625864  0.60532680  0.04558209    -0.76800
O2121       O  0.02512219  0.54617839  0.03950066    -0.86300
O2122       O  0.06478486  0.51964744  0.04754592    -0.86000
O2123       O  0.99152711  0.46818706  0.03330940    -0.72700
O2124       O  0.02947564  0.44665064  0.04086692    -0.84900
Zr2125     Zr  0.93383592  0.44713644  0.05157102     2.26400
Zr2126     Zr  0.95878545  0.50326614  0.03633889     2.06300
Zr2127     Zr  0.03483184  0.45484957  0.05188410     2.10000
Zr2128     Zr  0.02997302  0.55208845  0.05049597     1.78800
O2129       O  0.04365017  0.39876921  0.05396675    -0.93700
O2130       O  0.01292621  0.60379944  0.04982848    -0.41500
O2131       O  0.00041535  0.48795385  0.05502766    -0.78100
O2132       O  0.96310713  0.51229024  0.04734230    -0.96800
O2133       O  0.92850442  0.43869665  0.04063413    -0.90100
O2134       O  0.96787952  0.41318085  0.04881428    -0.92900
C2135       C  0.10932262  0.61054715  0.04104823     1.00800
C2136       C  0.11892285  0.48128050  0.04310550     1.13800
C2137       C  0.01774363  0.52944489  0.02336427     1.04500
O2138       O  0.96569063  0.56814847  0.03511916    -0.95100
O2139       O  0.89595187  0.49195302  0.03998994    -0.90800
O2140       O  0.87907966  0.45791708  0.04903221    -0.84000
C2141       C  0.87258936  0.47569508  0.04457089     1.11200
O2142       O  0.99078411  0.38702809  0.02939634    -0.97100
Zr2143     Zr  0.96200747  0.40447908  0.03796816     1.88900
O2144       O  0.87973145  0.38161240  0.04967440    -0.73700
O2145       O  0.90794408  0.47357233  0.02839798    -0.53000
O2146       O  0.91777893  0.38022349  0.02908167    -0.97700
O2147       O  0.97108500  0.34941204  0.04084837    -0.54900
O2148       O  0.89603477  0.35678012  0.04142053    -0.74200
C2149       C  0.87208356  0.35464935  0.04565850     0.98100
O2150       O  0.90815525  0.46232614  0.06081734    -0.63000
O2151       O  0.07951648  0.49380679  0.06017351    -0.57800
O2152       O  0.93830759  0.41396766  0.06079257    -0.94500
O2153       O  0.99776148  0.41710754  0.06097627    -0.93000
O2154       O  0.08182936  0.57503720  0.05827757    -0.93300
O2155       O  0.00945887  0.56729945  0.06025583    -0.92100
C2156       C  0.96346609  0.40614809  0.06326076     1.17000
H2157       H  0.09217570  0.53496475  0.04873775     0.32900
H2158       H  0.94886174  0.52516580  0.04867072     0.43800
H2159       H  0.95649030  0.38787190  0.05081600     0.37300
H2160       H  0.98923106  0.46299027  0.02891825     0.33800
H2161       H  0.03723283  0.62824265  0.05103228     0.25500
H2162       H  0.90654424  0.49590493  0.02653913     0.31500
H2163       H  0.89982265  0.39085748  0.02965517     0.37400
H2164       H  0.09217209  0.60375275  0.05857992     0.31900
H2165       H  0.06209977  0.49163243  0.06364785     0.30700
H2166       H  0.06297012  0.40749840  0.05740098     0.32400
H2167       H  0.95476126  0.33767669  0.04458284     0.31400
H2168       H  0.98273777  0.54470964  0.06097865     0.35400
H2169       H  0.93002886  0.47267544  0.06385132     0.28100
H2170       H  0.11493643  0.53317339  0.02675294     0.32300
H2171       H  0.97184666  0.35906103  0.02845555     0.35200
H2172       H  0.09188578  0.47840369  0.06152587     0.27800
H2173       H  0.90593335  0.48562838  0.05971776     0.40700
H2174       H  0.94255755  0.56656118  0.03722671     0.30700
H2175       H  0.01008884  0.60686635  0.04534125     0.38400
H2176       H  0.99857691  0.36183331  0.04235790     0.30200
H2177       H  0.91921967  0.46459250  0.02510971     0.30300
H2178       H  0.08477547  0.48799869  0.02589689     0.30500
Zr2179     Zr  0.06111250  0.53757223  0.94823920     2.17500
O2180       O  0.09214614  0.52304989  0.93965155    -0.51800
O2181       O  0.11513763  0.60406296  0.94957577    -0.75000
O2182       O  0.05522367  0.56764298  0.93870838    -0.81800
O2183       O  0.09577225  0.48923900  0.95982030    -0.83600
O2184       O  0.99572957  0.56429957  0.93844994    -0.79200
O2185       O  0.11155918  0.52064087  0.95054252    -0.90800
O2186       O  0.09557761  0.63233589  0.95685153    -0.76800
O2187       O  0.02716755  0.57212480  0.95051718    -0.86300
O2188       O  0.06825567  0.54988462  0.95910843    -0.86000
O2189       O  0.99420261  0.49492509  0.94501852    -0.72700
O2190       O  0.03250577  0.47451714  0.95316598    -0.84900
Zr2191     Zr  0.93656346  0.47695768  0.96343911     2.26400
Zr2192     Zr  0.95994711  0.52914286  0.94771451     2.06300
Zr2193     Zr  0.03781159  0.48698711  0.96404731     2.10000
Zr2194     Zr  0.03354356  0.58368510  0.96131262     1.78800
O2195       O  0.02572450  0.42191736  0.96696799    -0.93700
O2196       O  0.01941048  0.63532099  0.95842497    -0.41500
O2197       O  0.00348318  0.52112575  0.96620283    -0.78100
O2198       O  0.96545425  0.54127134  0.95867994    -0.96800
O2199       O  0.93045890  0.46584978  0.95254483    -0.90100
O2200       O  0.97095695  0.44263145  0.96119659    -0.92900
C2201       C  0.12043305  0.63344792  0.95288414     1.00800
C2202       C  0.11739796  0.50234889  0.95498192     1.13800
C2203       C  0.02983798  0.57484728  0.93615754     1.04500
O2204       O  0.95246736  0.58639080  0.94597842    -0.95100
O2205       O  0.89663179  0.51953582  0.95107382    -0.90800
O2206       O  0.88469444  0.49069110  0.96053451    -0.84000
C2207       C  0.87551912  0.50536150  0.95595807     1.11200
O2208       O  0.99173489  0.41714111  0.94106793    -0.97100
Zr2209     Zr  0.96560968  0.43263812  0.95021739     1.88900
O2210       O  0.88808978  0.40633127  0.96259106    -0.73700
O2211       O  0.91688705  0.49035811  0.93925292    -0.53000
O2212       O  0.91421773  0.40548854  0.94234406    -0.97700
O2213       O  0.97914821  0.37955418  0.95237795    -0.54900
O2214       O  0.90566133  0.38124125  0.95455291    -0.74200
C2215       C  0.88244300  0.37793159  0.95895348     0.98100
O2216       O  0.89341721  0.47005221  0.97206307    -0.63000
O2217       O  0.09073962  0.51524964  0.97169407    -0.57800
O2218       O  0.95676550  0.48174506  0.97435731    -0.94500
O2219       O  0.01698963  0.48699743  0.97460386    -0.93000
O2220       O  0.07865713  0.60506123  0.97008935    -0.93300
O2221       O  0.01468447  0.60959471  0.97009189    -0.92100
C2222       C  0.98716928  0.48563493  0.97729032     1.17000
H2223       H  0.09559687  0.56510634  0.96032191     0.32900
H2224       H  0.95144158  0.55461031  0.95988971     0.43800
H2225       H  0.96043109  0.41831513  0.96349088     0.37300
H2226       H  0.99311054  0.49082072  0.94059962     0.33800
H2227       H  0.04159248  0.65979489  0.96014887     0.25500
H2228       H  0.89245544  0.47027954  0.94129793     0.31500
H2229       H  0.92572738  0.42293193  0.93871289     0.37400
H2230       H  0.07119726  0.58065015  0.97243750     0.31900
H2231       H  0.09609444  0.49377389  0.97271678     0.30700
H2232       H  0.03708028  0.41401175  0.96354383     0.32400
H2233       H  0.95631599  0.35564446  0.95064263     0.31400
H2234       H  0.99635239  0.58599945  0.97250226     0.35400
H2235       H  0.89429383  0.49566615  0.97239069     0.28100
H2236       H  0.11180412  0.54903028  0.93796625     0.32300
H2237       H  0.97271774  0.38927401  0.94008138     0.35200
H2238       H  0.11442387  0.53490151  0.96943773     0.27800
H2239       H  0.86634661  0.45114448  0.97066079     0.40700
H2240       H  0.95108283  0.59587326  0.95017009     0.30700
H2241       H  0.02351136  0.63809681  0.95388995     0.38400
H2242       H  0.97611902  0.37571660  0.95691395     0.30200
H2243       H  0.90940124  0.50824082  0.93720874     0.30300
H2244       H  0.07159325  0.51102178  0.93641102     0.30500
Zr2245     Zr  0.44996772  0.93241116  0.03598894     2.17500
O2246       O  0.40306942  0.88971855  0.02815577    -0.51800
O2247       O  0.46991720  0.88254162  0.03714706    -0.75000
O2248       O  0.47734881  0.94699676  0.02540031    -0.81800
O2249       O  0.36421237  0.89340258  0.04764833    -0.83600
O2250       O  0.53303386  0.00685027  0.02550677    -0.79200
O2251       O  0.38355494  0.88078799  0.03842383    -0.90800
O2252       O  0.51283390  0.90187864  0.04518649    -0.76800
O2253       O  0.51787595  0.96701219  0.03873064    -0.86300
O2254       O  0.45253967  0.92570123  0.04694636    -0.86000
O2255       O  0.47198441  0.99942613  0.03297913    -0.72700
O2256       O  0.41359895  0.96041269  0.04065657    -0.84900
Zr2257     Zr  0.50954377  0.05600719  0.05131369     2.26400
Zr2258     Zr  0.54026821  0.03385779  0.03581642     2.06300
Zr2259     Zr  0.41772979  0.95471702  0.05163895     2.10000
Zr2260     Zr  0.52012278  0.96106963  0.04969926     1.78800
O2261       O  0.35388036  0.94950539  0.05322488    -0.93700
O2262       O  0.58760720  0.97613825  0.04797115    -0.41500
O2263       O  0.48559695  0.98960125  0.05458761    -0.78100
O2264       O  0.54588482  0.02814247  0.04677271    -0.96800
O2265       O  0.50541628  0.06253174  0.04043700    -0.90100
O2266       O  0.44149204  0.02136374  0.04869404    -0.92900
C2267       C  0.49313742  0.87797007  0.04082753     1.00800
C2268       C  0.35835508  0.87227078  0.04278520     1.13800
C2269       C  0.50692267  0.97596610  0.02268066     1.04500
O2270       O  0.59968715  0.03073683  0.03374399    -0.95100
O2271       O  0.59221885  0.09685174  0.03956635    -0.90800
O2272       O  0.57450331  0.11098531  0.04881398    -0.84000
C2273       C  0.59882247  0.11901703  0.04431722     1.11200
O2274       O  0.38717881  0.99611132  0.02989371    -0.97100
Zr2275     Zr  0.43749434  0.02772046  0.03787304     1.88900
O2276       O  0.49690075  0.10945913  0.04958615    -0.73700
O2277       O  0.55620039  0.08609482  0.02831675    -0.53000
O2278       O  0.45572164  0.06785483  0.02853140    -0.97700
O2279       O  0.37518386  0.02149144  0.04113807    -0.54900
O2280       O  0.45643301  0.09398730  0.04125248    -0.74200
C2281       C  0.47792392  0.11754042  0.04556914     0.98100
O2282       O  0.55066907  0.08043982  0.06056869    -0.63000
O2283       O  0.41036749  0.90914817  0.05987051    -0.57800
O2284       O  0.47243752  0.05052682  0.06063976    -0.94500
O2285       O  0.41821508  0.98952235  0.06107779    -0.93000
O2286       O  0.49260114  0.91269890  0.05799251    -0.93300
O2287       O  0.56072885  0.98153768  0.05900645    -0.92100
C2288       C  0.44082306  0.02420290  0.06329826     1.17000
H2289       H  0.44078672  0.89830832  0.04810410     0.32900
H2290       H  0.57310942  0.04260499  0.04805536     0.43800
H2291       H  0.42738224  0.03220872  0.05081044     0.37300
H2292       H  0.46825157  0.00172070  0.02861446     0.33800
H2293       H  0.58866604  0.95322575  0.04965816     0.25500
H2294       H  0.57855792  0.08800766  0.02591111     0.31500
H2295       H  0.48126901  0.09148143  0.02953419     0.37400
H2296       H  0.50603931  0.89711745  0.05764442     0.31900
H2297       H  0.42765039  0.92604222  0.06325092     0.30700
H2298       H  0.34307857  0.93301101  0.05697146     0.32400
H2299       H  0.38197788  0.04153137  0.04441849     0.31400
H2300       H  0.57180676  0.01039758  0.05920989     0.35400
H2301       H  0.54004419  0.05758904  0.06340700     0.28100
H2302       H  0.41596280  0.87691905  0.02599413     0.32300
H2303       H  0.37985095  0.01590992  0.02866531     0.35200
H2304       H  0.38331116  0.89914292  0.06144045     0.27800
H2305       H  0.57664355  0.08422273  0.05934448     0.40700
H2306       H  0.62184567  0.05778872  0.03442040     0.30700
H2307       H  0.58956760  0.97404328  0.04343141     0.38400
H2308       H  0.36146199  0.99598491  0.04333902     0.30200
H2309       H  0.53384273  0.07509656  0.02537058     0.30300
H2310       H  0.40161990  0.90754373  0.02505768     0.30500
Zr2311     Zr  0.48342356  0.93017242  0.94754673     2.17500
O2312       O  0.44211528  0.90101544  0.93842635    -0.51800
O2313       O  0.49620693  0.87665560  0.94926765    -0.75000
O2314       O  0.52267958  0.93774722  0.93834895    -0.81800
O2315       O  0.39598318  0.89579439  0.95805961    -0.83600
O2316       O  0.57858051  0.99754777  0.93854341    -0.79200
O2317       O  0.41532051  0.87856027  0.94925732    -0.90800
O2318       O  0.53872684  0.89344408  0.95733417    -0.76800
O2319       O  0.55117993  0.96524435  0.95034083    -0.86300
O2320       O  0.48528627  0.92271180  0.95848715    -0.86000
O2321       O  0.50808754  0.99714359  0.94437082    -0.72700
O2322       O  0.44656130  0.95761325  0.95201483    -0.84900
Zr2323     Zr  0.54019147  0.05337533  0.96285778     2.26400
Zr2324     Zr  0.57562067  0.03260667  0.94764338     2.06300
Zr2325     Zr  0.45034068  0.95199426  0.96298103     2.10000
Zr2326     Zr  0.55327599  0.95774961  0.96115363     1.78800
O2327       O  0.39517084  0.96064644  0.96590793    -0.93700
O2328       O  0.61646893  0.96567804  0.95799329    -0.41500
O2329       O  0.51807128  0.98654603  0.96569645    -0.78100
O2330       O  0.57871838  0.02609958  0.95863654    -0.96800
O2331       O  0.53888312  0.06052046  0.95193807    -0.90100
O2332       O  0.47248449  0.01847533  0.96002365    -0.92900
C2333       C  0.51694834  0.86953097  0.95307517     1.00800
C2334       C  0.38931379  0.87344178  0.95333835     1.13800
C2335       C  0.55581394  0.96383803  0.93604660     1.04500
O2336       O  0.64079632  0.04068119  0.94620183    -0.95100
O2337       O  0.62727625  0.09605849  0.95156512    -0.90800
O2338       O  0.60640061  0.10607699  0.96082822    -0.84000
C2339       C  0.63180602  0.11648750  0.95647955     1.11200
O2340       O  0.43189112  0.99610091  0.93967368    -0.97100
Zr2341     Zr  0.47139212  0.02426289  0.94899663     1.88900
O2342       O  0.51784532  0.10125754  0.96141256    -0.73700
O2343       O  0.58092307  0.07624605  0.93922148    -0.53000
O2344       O  0.49611965  0.07299687  0.94072967    -0.97700
O2345       O  0.40430608  0.01053831  0.95076113    -0.54900
O2346       O  0.47808778  0.08427992  0.95299130    -0.74200
C2347       C  0.49633339  0.10705415  0.95753792     0.98100
O2348       O  0.56833020  0.09763539  0.97171848    -0.63000
O2349       O  0.42636681  0.89751157  0.97029027    -0.57800
O2350       O  0.52203662  0.03314826  0.97362203    -0.94500
O2351       O  0.46543872  0.97425193  0.97366291    -0.93000
O2352       O  0.53300143  0.91469119  0.97015099    -0.93300
O2353       O  0.59981673  0.98480221  0.96970889    -0.92100
C2354       C  0.49391811  0.00365147  0.97645495     1.17000
H2355       H  0.47296084  0.89533814  0.95966734     0.32900
H2356       H  0.60557615  0.04048534  0.96008151     0.43800
H2357       H  0.45763591  0.02852514  0.96212783     0.37300
H2358       H  0.50658232  0.99838353  0.93992042     0.33800
H2359       H  0.61702093  0.94279449  0.95981005     0.25500
H2360       H  0.60948689  0.09505349  0.93884296     0.31500
H2361       H  0.47639855  0.08157574  0.94032252     0.37400
H2362       H  0.50632718  0.90988975  0.97114008     0.31900
H2363       H  0.39984882  0.89231588  0.97149150     0.30700
H2364       H  0.37199679  0.93374758  0.96592265     0.32400
H2365       H  0.40485746  0.02191722  0.95487861     0.31400
H2366       H  0.59795116  0.00781282  0.97113325     0.35400
H2367       H  0.59484455  0.10108393  0.97239131     0.28100
H2368       H  0.45004230  0.88264526  0.93669135     0.32300
H2369       H  0.41834289  0.01127664  0.93892738     0.35200
H2370       H  0.42148158  0.87424025  0.96781565     0.27800
H2371       H  0.57316465  0.12364197  0.97027969     0.40700
H2372       H  0.64904745  0.03751140  0.95039503     0.30700
H2373       H  0.61401039  0.96048053  0.95348047     0.38400
H2374       H  0.38878142  0.98171584  0.95140561     0.30200
H2375       H  0.57406858  0.05995977  0.93542387     0.30300
H2376       H  0.45127893  0.92264231  0.93537184     0.30500
C2377       C  0.50923987  0.97643372  0.01578594    -0.01800
C2378       C  0.54081921  0.00827975  0.01276526    -0.09800
C2379       C  0.54002919  0.01379414  0.00638937    -0.18600
C2380       C  0.50739468  0.98751044  0.00274968     0.03800
C2381       C  0.47636253  0.95410875  0.00574948     0.17900
C2382       C  0.47755635  0.94884908  0.01218631    -0.20100
C2383       C  0.44375369  0.92665855  0.00233471    -0.21300
C2384       C  0.44097398  0.93187464  0.99602363    -0.19900
C2385       C  0.47053980  0.96488594  0.99296308     0.19300
C2386       C  0.50421938  0.99326333  0.99626841     0.01500
C2387       C  0.53296551  0.02624680  0.99294267    -0.14600
C2388       C  0.52880199  0.03031160  0.98659516    -0.12300
C2389       C  0.49592924  0.00179037  0.98332118     0.01000
C2390       C  0.46668728  0.96939029  0.98658740    -0.24500
H2391       H  0.56586117  0.03013422  0.01537587     0.09000
H2392       H  0.56515154  0.03934189  0.00447223     0.12600
H2393       H  0.45284416  0.92413995  0.01442703     0.11300
H2394       H  0.42006383  0.90103342  0.00457019     0.12500
H2395       H  0.41530573  0.91001927  0.99352392     0.11500
H2396       H  0.55915347  0.04933842  0.99510067     0.08600
H2397       H  0.55200410  0.05557951  0.98422120     0.11900
H2398       H  0.44107522  0.94698957  0.98414108     0.13700
C2399       C  0.66855476  0.15468931  0.95725965    -0.01800
C2400       C  0.66927783  0.18396921  0.96109303    -0.09800
C2401       C  0.70367074  0.22030306  0.96183181    -0.18600
C2402       C  0.73886934  0.22837920  0.95881238     0.03800
C2403       C  0.73800769  0.19824330  0.95501425     0.17900
C2404       C  0.70307627  0.16212422  0.95423667    -0.20100
C2405       C  0.77202784  0.20425235  0.95199044    -0.21300
C2406       C  0.80688224  0.23981875  0.95255721    -0.19900
C2407       C  0.80853080  0.27037813  0.95612899     0.19300
C2408       C  0.77478481  0.26521293  0.95936330     0.01500
C2409       C  0.77852755  0.29736072  0.96291138    -0.14600
C2410       C  0.81386551  0.33351305  0.96301582    -0.12300
C2411       C  0.84653221  0.33869218  0.95962423     0.01000
C2412       C  0.84372856  0.30648570  0.95633670    -0.24500
H2413       H  0.64289752  0.17899589  0.96347772     0.09000
H2414       H  0.70176699  0.24140711  0.96479332     0.12600
H2415       H  0.70289808  0.13951880  0.95131956     0.11300
H2416       H  0.77163057  0.18133657  0.94913062     0.12500
H2417       H  0.83265052  0.24364746  0.95010445     0.11500
H2418       H  0.75446491  0.29576271  0.96554449     0.08600
H2419       H  0.81516991  0.35781915  0.96559816     0.11900
H2420       H  0.86885466  0.30975757  0.95374647     0.13700
C2421       C  0.34859307  0.83994563  0.95269272    -0.01800
C2422       C  0.31920748  0.83819384  0.95659062    -0.09800
C2423       C  0.28105076  0.80660707  0.95636855    -0.18600
C2424       C  0.27056115  0.77506280  0.95222464     0.03800
C2425       C  0.30006230  0.77692526  0.94818723     0.17900
C2426       C  0.33864685  0.80939184  0.94841552    -0.20100
C2427       C  0.29099940  0.74596806  0.94405743    -0.21300
C2428       C  0.25356417  0.71273621  0.94397848    -0.19900
C2429       C  0.22423644  0.70974915  0.94800760     0.19300
C2430       C  0.23214122  0.74128450  0.95209329     0.01500
C2431       C  0.20149361  0.73730299  0.95599471    -0.14600
C2432       C  0.16535919  0.70274200  0.95609613    -0.12300
C2433       C  0.15801851  0.67096452  0.95226825     0.01000
C2434       C  0.18733181  0.67502657  0.94810744    -0.24500
H2435       H  0.32564966  0.86135743  0.95991401     0.09000
H2436       H  0.26076182  0.80769479  0.95959955     0.12600
H2437       H  0.36106911  0.81035778  0.94537346     0.11300
H2438       H  0.31321369  0.74714146  0.94094691     0.12500
H2439       H  0.24770353  0.68894883  0.94081345     0.11500
H2440       H  0.20445200  0.76004982  0.95910979     0.08600
H2441       H  0.14326148  0.70082227  0.95930346     0.11900
H2442       H  0.18188411  0.65082934  0.94505946     0.13700
C2443       C  0.83242270  0.31933743  0.04580169    -0.01800
C2444       C  0.80881597  0.31008990  0.05109821    -0.09800
C2445       C  0.77040717  0.27820607  0.05110755    -0.18600
C2446       C  0.75419009  0.25456701  0.04576715     0.03800
C2447       C  0.77841094  0.26409825  0.04041954     0.17900
C2448       C  0.81703395  0.29597169  0.04049754    -0.20100
C2449       C  0.76391149  0.24198763  0.03498942    -0.21300
C2450       C  0.72577958  0.21034522  0.03474402    -0.19900
C2451       C  0.70123805  0.20000041  0.03992656     0.19300
C2452       C  0.71492702  0.22189369  0.04551931     0.01500
C2453       C  0.68873469  0.20990473  0.05060692    -0.14600
C2454       C  0.65083847  0.17725847  0.05016830    -0.12300
C2455       C  0.63775520  0.15548201  0.04466505     0.01000
C2456       C  0.66312726  0.16743980  0.03954771    -0.24500
H2457       H  0.82002343  0.32769807  0.05526352     0.09000
H2458       H  0.75412770  0.27305338  0.05534877     0.12600
H2459       H  0.83485136  0.30316665  0.03634670     0.11300
H2460       H  0.78221418  0.24920781  0.03089770     0.12500
H2461       H  0.71546061  0.19371246  0.03047106     0.11500
H2462       H  0.69674518  0.22483145  0.05501046     0.08600
H2463       H  0.63201276  0.16860392  0.05420840     0.11900
H2464       H  0.65344450  0.15100248  0.03524628     0.13700
C2465       C  0.32000616  0.83541440  0.04216219    -0.01800
C2466       C  0.28898059  0.82755908  0.04619055    -0.09800
C2467       C  0.25314407  0.79251454  0.04573672    -0.18600
C2468       C  0.24716663  0.76375482  0.04124184     0.03800
C2469       C  0.27884347  0.77148008  0.03722926     0.17900
C2470       C  0.31448078  0.80732849  0.03763782    -0.20100
C2471       C  0.27510530  0.74294113  0.03294803    -0.21300
C2472       C  0.24091350  0.70626372  0.03271200    -0.19900
C2473       C  0.20906108  0.69778007  0.03658964     0.19300
C2474       C  0.21135201  0.72706895  0.04073852     0.01500
C2475       C  0.17769513  0.71839362  0.04423458    -0.14600
C2476       C  0.14432325  0.68132106  0.04400015    -0.12300
C2477       C  0.14304665  0.65118252  0.04031909     0.01000
C2478       C  0.17515894  0.66003078  0.03644691    -0.24500
H2479       H  0.29237995  0.84853118  0.04974805     0.09000
H2480       H  0.23113826  0.78839585  0.04909710     0.12600
H2481       H  0.33837170  0.81279911  0.03453147     0.11300
H2482       H  0.29920926  0.74863308  0.02987659     0.12500
H2483       H  0.23939758  0.68439626  0.02948069     0.11500
H2484       H  0.17612989  0.73962771  0.04720722     0.08600
H2485       H  0.11963751  0.67606248  0.04689465     0.11900
H2486       H  0.17434831  0.63732586  0.03348105     0.13700
C2487       C  0.01752998  0.53232135  0.01649857    -0.01800
C2488       C  0.98601717  0.53286411  0.01349690    -0.09800
C2489       C  0.98005532  0.52623785  0.00713007    -0.18600
C2490       C  0.00558260  0.51883470  0.00350101     0.03800
C2491       C  0.03899763  0.52100021  0.00647840     0.17900
C2492       C  0.04471700  0.52779866  0.01289367    -0.20100
C2493       C  0.06594192  0.51517276  0.00307009    -0.21300
C2494       C  0.06032751  0.50694187  0.99677293    -0.19900
C2495       C  0.02730253  0.50371595  0.99373576     0.19300
C2496       C  0.99918196  0.50923538  0.99704589     0.01500
C2497       C  0.96579397  0.50443879  0.99375148    -0.14600
C2498       C  0.96129408  0.49577751  0.98740404    -0.12300
C2499       C  0.98970511  0.49139074  0.98412887     0.01000
C2500       C  0.02244666  0.49511179  0.98737953    -0.24500
H2501       H  0.96461385  0.53663199  0.01611944     0.09000
H2502       H  0.95479959  0.52640982  0.00520571     0.12600
H2503       H  0.06933576  0.52748534  0.01512037     0.11300
H2504       H  0.09151474  0.51686398  0.00529532     0.12500
H2505       H  0.08184821  0.50271173  0.99426693     0.11500
H2506       H  0.94264808  0.50720283  0.99594735     0.08600
H2507       H  0.93571901  0.49312161  0.98503993     0.11900
H2508       H  0.04471690  0.49171646  0.98494486     0.13700
C2509       C  0.65572623  0.50300471  0.95854640    -0.01800
C2510       C  0.68566467  0.53105032  0.95475298    -0.09800
C2511       C  0.72236716  0.53384919  0.95442014    -0.18600
C2512       C  0.73079660  0.50852966  0.95789190     0.03800
C2513       C  0.70124127  0.48141277  0.96198822     0.17900
C2514       C  0.66412783  0.47890621  0.96229233    -0.20100
C2515       C  0.70865067  0.45636069  0.96563879    -0.21300
C2516       C  0.74438671  0.45705058  0.96521101    -0.19900
C2517       C  0.77354292  0.48259589  0.96108843     0.19300
C2518       C  0.76727425  0.50884229  0.95738007     0.01500
C2519       C  0.79752457  0.53371348  0.95323663    -0.14600
C2520       C  0.83226538  0.53228729  0.95276663    -0.12300
C2521       C  0.83833556  0.50636928  0.95642652     0.01000
C2522       C  0.80884771  0.48176850  0.96061195    -0.24500
H2523       H  0.68055706  0.55068509  0.95188160     0.09000
H2524       H  0.74330394  0.55592372  0.95133451     0.12600
H2525       H  0.64142141  0.45726305  0.96527738     0.11300
H2526       H  0.68649576  0.43578903  0.96880390     0.12500
H2527       H  0.74904922  0.43705214  0.96806952     0.11500
H2528       H  0.79521815  0.55440260  0.95024414     0.08600
H2529       H  0.85466445  0.55189597  0.94954600     0.11900
H2530       H  0.81310878  0.46144729  0.96345818     0.13700
C2531       C  0.15072732  0.49493330  0.95454579    -0.01800
C2532       C  0.15332986  0.46910307  0.95874623    -0.09800
C2533       C  0.18466521  0.46208016  0.95854997    -0.18600
C2534       C  0.21497394  0.48097449  0.95414124     0.03800
C2535       C  0.21200663  0.50667426  0.94981036     0.17900
C2536       C  0.17990052  0.51314697  0.95001306    -0.20100
C2537       C  0.24143328  0.52625440  0.94537370    -0.21300
C2538       C  0.27421736  0.52149304  0.94522531    -0.19900
C2539       C  0.27809276  0.49664257  0.94945855     0.19300
C2540       C  0.24833302  0.47568246  0.95393728     0.01500
C2541       C  0.25346178  0.45062715  0.95806005    -0.14600
C2542       C  0.28697897  0.44708697  0.95781216    -0.12300
C2543       C  0.31664778  0.46837161  0.95347506     0.01000
C2544       C  0.31180128  0.49289826  0.94927406    -0.24500
H2545       H  0.13096459  0.45406845  0.96224638     0.09000
H2546       H  0.18435348  0.44199367  0.96197080     0.12600
H2547       H  0.17808281  0.53298994  0.94671321     0.11300
H2548       H  0.23933607  0.54579078  0.94204660     0.12500
H2549       H  0.29677454  0.53747356  0.94178710     0.11500
H2550       H  0.23231981  0.43345801  0.96156677     0.08600
H2551       H  0.28985617  0.42797090  0.96112685     0.11900
H2552       H  0.33455774  0.50963786  0.94589804     0.13700
C2553       C  0.48897477  0.32140492  0.95690953    -0.01800
C2554       C  0.45838831  0.28786023  0.95410301    -0.09800
C2555       C  0.45669261  0.25162878  0.95454564    -0.18600
C2556       C  0.48630284  0.24800414  0.95771234     0.03800
C2557       C  0.51741929  0.28230625  0.96052379     0.17900
C2558       C  0.51808089  0.31837183  0.96019848    -0.20100
C2559       C  0.54815974  0.28061808  0.96352168    -0.21300
C2560       C  0.54915311  0.24569906  0.96368780    -0.19900
C2561       C  0.51904441  0.21141097  0.96096198     0.19300
C2562       C  0.48678785  0.21190837  0.95803388     0.01500
C2563       C  0.45674813  0.17637047  0.95546266    -0.14600
C2564       C  0.45961476  0.14241993  0.95551906    -0.12300
C2565       C  0.49216255  0.14234963  0.95818848     0.01000
C2566       C  0.52140264  0.17677412  0.96103105    -0.24500
H2567       H  0.43539582  0.28958265  0.95158499     0.09000
H2568       H  0.43224132  0.22728400  0.95225049     0.12600
H2569       H  0.54196206  0.34442186  0.96234237     0.11300
H2570       H  0.57201528  0.30669219  0.96565478     0.12500
H2571       H  0.57379013  0.24557364  0.96593545     0.11500
H2572       H  0.43077030  0.17380404  0.95332018     0.08600
H2573       H  0.43625178  0.11603653  0.95337803     0.11900
H2574       H  0.54671648  0.17703079  0.96310064     0.13700
C2575       C  0.51402945  0.83041140  0.95269664    -0.01800
C2576       C  0.49314065  0.80432260  0.94785535    -0.09800
C2577       C  0.48680395  0.76598003  0.94780878    -0.18600
C2578       C  0.50130792  0.75236627  0.95262973     0.03800
C2579       C  0.52357845  0.77937991  0.95741913     0.17900
C2580       C  0.52974410  0.81780776  0.95740327    -0.20100
C2581       C  0.53925955  0.76783130  0.96225498    -0.21300
C2582       C  0.53315184  0.72986668  0.96247269    -0.19900
C2583       C  0.51095572  0.70243066  0.95788620     0.19300
C2584       C  0.49460829  0.71306307  0.95289114     0.01500
C2585       C  0.47227564  0.68381816  0.94841454    -0.14600
C2586       C  0.46685296  0.64582165  0.94887020    -0.12300
C2587       C  0.48324018  0.63568831  0.95380687     0.01000
C2588       C  0.50517582  0.66432576  0.95829217    -0.24500
H2589       H  0.48095053  0.81330356  0.94411772     0.09000
H2590       H  0.47020462  0.74765765  0.94396109     0.12600
H2591       H  0.54602666  0.83761483  0.96117383     0.11300
H2592       H  0.55634856  0.78830703  0.96590518     0.12500
H2593       H  0.54576499  0.72185029  0.96627899     0.11500
H2594       H  0.45862057  0.68935601  0.94451212     0.08600
H2595       H  0.44977944  0.62435442  0.94533759     0.11900
H2596       H  0.51819427  0.65713912  0.96214270     0.13700
C2597       C  0.67039402  0.50617833  0.04536046    -0.01800
C2598       C  0.69907623  0.52514258  0.04078752    -0.09800
C2599       C  0.73180352  0.52026861  0.04046828    -0.18600
C2600       C  0.73722167  0.49613293  0.04475269     0.03800
C2601       C  0.70803033  0.47666614  0.04936748     0.17900
C2602       C  0.67500691  0.48171238  0.04962099    -0.20100
C2603       C  0.71203479  0.45235530  0.05370419    -0.21300
C2604       C  0.74467175  0.44721255  0.05358848    -0.19900
C2605       C  0.77405365  0.46610345  0.04911361     0.19300
C2606       C  0.77057879  0.49072857  0.04462167     0.01500
C2607       C  0.80076093  0.50909095  0.04019111    -0.14600
C2608       C  0.83293291  0.50341248  0.04020969    -0.12300
C2609       C  0.83674102  0.47941292  0.04464748     0.01000
C2610       C  0.80701551  0.46071914  0.04910373    -0.24500
H2611       H  0.69622991  0.54382083  0.03738159     0.09000
H2612       H  0.75223285  0.53590583  0.03679550     0.12600
H2613       H  0.65286709  0.46647539  0.05314936     0.11300
H2614       H  0.68983092  0.43732633  0.05723000     0.12500
H2615       H  0.74696143  0.42836368  0.05702882     0.11500
H2616       H  0.80066651  0.52823594  0.03663482     0.08600
H2617       H  0.85529379  0.51855626  0.03671421     0.11900
H2618       H  0.80952411  0.44211240  0.05256822     0.13700
C2619       C  0.33957820  0.48671116  0.04042955    -0.01800
C2620       C  0.30747437  0.45381476  0.04311113    -0.09800
C2621       C  0.27050722  0.45043837  0.04330589    -0.18600
C2622       C  0.26434921  0.48030488  0.04087344     0.03800
C2623       C  0.29654394  0.51281981  0.03789278     0.17900
C2624       C  0.33363574  0.51551501  0.03763110    -0.20100
C2625       C  0.29184818  0.54308556  0.03538703    -0.21300
C2626       C  0.25600424  0.54206181  0.03585431    -0.19900
C2627       C  0.22399499  0.51078089  0.03884808     0.19300
C2628       C  0.22765759  0.47941460  0.04140371     0.01500
C2629       C  0.19465631  0.44895577  0.04449586    -0.14600
C2630       C  0.15968321  0.44979646  0.04505777    -0.12300
C2631       C  0.15613043  0.48061049  0.04250366     0.01000
C2632       C  0.18838072  0.51089531  0.03936205    -0.24500
H2633       H  0.31109349  0.43074629  0.04521072     0.09000
H2634       H  0.24763013  0.42439696  0.04550375     0.12600
H2635       H  0.35830252  0.54103381  0.03553440     0.11300
H2636       H  0.31620777  0.56797512  0.03311803     0.12500
H2637       H  0.25342099  0.56613908  0.03391511     0.11500
H2638       H  0.19489998  0.42419121  0.04658999     0.08600
H2639       H  0.13513459  0.42595102  0.04746624     0.11900
H2640       H  0.18602519  0.53508137  0.03740541     0.13700
C2641       C  0.48245574  0.15729801  0.04580851    -0.01800
C2642       C  0.50320499  0.18314906  0.05067872    -0.09800
C2643       C  0.51039004  0.22174608  0.05068413    -0.18600
C2644       C  0.49687231  0.23584352  0.04579347     0.03800
C2645       C  0.47545564  0.20933628  0.04090179     0.17900
C2646       C  0.46836118  0.17060946  0.04096585    -0.20100
C2647       C  0.46144615  0.22164281  0.03593114    -0.21300
C2648       C  0.46838354  0.25989039  0.03568267    -0.19900
C2649       C  0.48921697  0.28663762  0.04042313     0.19300
C2650       C  0.50366584  0.27513712  0.04557156     0.01500
C2651       C  0.52377889  0.30336241  0.05028441    -0.14600
C2652       C  0.52872708  0.34114503  0.04991873    -0.12300
C2653       C  0.51430714  0.35215968  0.04482328     0.01000
C2654       C  0.49500591  0.32474014  0.04006775    -0.24500
H2655       H  0.51450011  0.17373374  0.05448716     0.09000
H2656       H  0.52690964  0.23986288  0.05455328     0.12600
H2657       H  0.45249818  0.15106150  0.03714611     0.11300
H2658       H  0.44506375  0.20155895  0.03219769     0.12500
H2659       H  0.45712016  0.26854193  0.03176846     0.11500
H2660       H  0.53550273  0.29702102  0.05435410     0.08600
H2661       H  0.54352515  0.36161897  0.05368047     0.11900
H2662       H  0.48351119  0.33267436  0.03609732     0.13700
C2663       C  0.50514219  0.66599024  0.04287144    -0.01800
C2664       C  0.53579126  0.70070198  0.04539552    -0.09800
C2665       C  0.53646902  0.73640251  0.04470170    -0.18600
C2666       C  0.50583037  0.73840961  0.04155040     0.03800
C2667       C  0.47463222  0.70300722  0.03903830     0.17900
C2668       C  0.47479388  0.66743953  0.03965690    -0.20100
C2669       C  0.44319890  0.70320169  0.03599210    -0.21300
C2670       C  0.44167449  0.73778270  0.03547667    -0.19900
C2671       C  0.47172430  0.77314633  0.03794738     0.19300
C2672       C  0.50453392  0.77401056  0.04093498     0.01500
C2673       C  0.53432119  0.81037605  0.04328885    -0.14600
C2674       C  0.53083863  0.84388593  0.04297153    -0.12300
C2675       C  0.49781487  0.84282966  0.04026243     0.01000
C2676       C  0.46871851  0.80747538  0.03760599    -0.24500
H2677       H  0.55973816  0.70038381  0.04784602     0.09000
H2678       H  0.56120797  0.76174418  0.04675157     0.12600
H2679       H  0.45079522  0.64060648  0.03771968     0.11300
H2680       H  0.41930536  0.67626675  0.03406925     0.12500
H2681       H  0.41660497  0.73676623  0.03318314     0.11500
H2682       H  0.56053191  0.81394584  0.04549300     0.08600
H2683       H  0.55411107  0.87084942  0.04498746     0.11900
H2684       H  0.44300193  0.80623238  0.03550944     0.13700
C2685       C  0.45850830  0.47660494  0.01630073    -0.01800
C2686       C  0.45778815  0.44437845  0.01331139    -0.09800
C2687       C  0.46377534  0.44454942  0.00692391    -0.18600
C2688       C  0.47087458  0.47721681  0.00324389     0.03800
C2689       C  0.46937303  0.50885167  0.00621769     0.17900
C2690       C  0.46290740  0.50813040  0.01265116    -0.20100
C2691       C  0.47588661  0.54182730  0.00279550    -0.21300
C2692       C  0.48470258  0.54454867  0.99651678    -0.19900
C2693       C  0.48728228  0.51437903  0.99347492     0.19300
C2694       C  0.48015950  0.48009143  0.99676518     0.01500
C2695       C  0.48321098  0.45059867  0.99342864    -0.14600
C2696       C  0.49279905  0.45501594  0.98711126    -0.12300
C2697       C  0.49973102  0.48887826  0.98387415     0.01000
C2698       C  0.49691492  0.51843466  0.98713950    -0.24500
H2699       H  0.45430888  0.41939880  0.01595857     0.09000
H2700       H  0.46374922  0.41911060  0.00503329     0.12600
H2701       H  0.46358041  0.53328617  0.01486036     0.11300
H2702       H  0.47471887  0.56601634  0.00501250     0.12500
H2703       H  0.48992133  0.57070324  0.99402916     0.11500
H2704       H  0.47821159  0.42367508  0.99556484     0.08600
H2705       H  0.49414875  0.43141141  0.98473168     0.11900
H2706       H  0.50180080  0.54473342  0.98473033     0.13700
C2707       C  0.89236278  0.26429070  0.09642954    -0.01800
C2708       C  0.86807062  0.27788751  0.09403659    -0.09800
C2709       C  0.87845583  0.30094997  0.08869083    -0.18600
C2710       C  0.91390271  0.31158176  0.08551301     0.03800
C2711       C  0.93857842  0.29789382  0.08794273     0.17900
C2712       C  0.92757610  0.27433983  0.09330897    -0.20100
C2713       C  0.97432195  0.30813066  0.08503501    -0.21300
C2714       C  0.98614342  0.33167290  0.07976072    -0.19900
C2715       C  0.96239277  0.34536435  0.07720846     0.19300
C2716       C  0.92584182  0.33539532  0.08003843     0.01500
C2717       C  0.90275959  0.34954578  0.07723962    -0.14600
C2718       C  0.91529765  0.37241144  0.07187725    -0.12300
C2719       C  0.95138078  0.38238937  0.06907650     0.01000
C2720       C  0.97486822  0.36875549  0.07181159    -0.24500
H2721       H  0.84081396  0.27093924  0.09633033     0.09000
H2722       H  0.85819778  0.31027730  0.08720622     0.12600
H2723       H  0.94689445  0.26436745  0.09510733     0.11300
H2724       H  0.99339372  0.29796310  0.08686841     0.12500
H2725       H  0.01403346  0.33907553  0.07764359     0.11500
H2726       H  0.87463267  0.34324157  0.07904683     0.08600
H2727       H  0.89632007  0.38227700  0.06991181     0.11900
H2728       H  0.00274759  0.37595526  0.06970740     0.13700
C2729       C  0.83385897  0.16236687  0.18268423    -0.01800
C2730       C  0.86796162  0.16807903  0.17965162    -0.09800
C2731       C  0.86781532  0.16085104  0.17331509    -0.18600
C2732       C  0.83330055  0.14750557  0.16972609     0.03800
C2733       C  0.79881813  0.14210430  0.17278116     0.17900
C2734       C  0.79937927  0.14951970  0.17918259    -0.20100
C2735       C  0.76391913  0.12924082  0.16942910    -0.21300
C2736       C  0.76274120  0.12260070  0.16308143    -0.19900
C2737       C  0.79631113  0.12819068  0.15992461     0.19300
C2738       C  0.83189556  0.13994230  0.16321102     0.01500
C2739       C  0.86460677  0.14414994  0.15980458    -0.14600
C2740       C  0.86266009  0.13906741  0.15337743    -0.12300
C2741       C  0.82818775  0.12965207  0.15010983     0.01000
C2742       C  0.79477815  0.12320178  0.15346046    -0.24500
H2743       H  0.89505039  0.17779899  0.18220980     0.09000
H2744       H  0.89526084  0.16601292  0.17137054     0.12600
H2745       H  0.77261767  0.14437479  0.18146334     0.11300
H2746       H  0.73744052  0.12479467  0.17171954     0.12500
H2747       H  0.73542925  0.11338916  0.16061041     0.11500
H2748       H  0.89241456  0.15213441  0.16194850     0.08600
H2749       H  0.88894546  0.14436863  0.15093062     0.11900
H2750       H  0.76777433  0.11565271  0.15100535     0.13700
C2751       C  0.00869170  0.17484768  0.12237296    -0.01800
C2752       C  0.03990195  0.19876191  0.11842723    -0.09800
C2753       C  0.07604605  0.20009925  0.11892238    -0.18600
C2754       C  0.08204811  0.17705844  0.12336752     0.03800
C2755       C  0.05041341  0.15316357  0.12739347     0.17900
C2756       C  0.01437685  0.15232497  0.12687048    -0.20100
C2757       C  0.05470286  0.12982756  0.13187951    -0.21300
C2758       C  0.08946522  0.12869059  0.13233298    -0.19900
C2759       C  0.12084207  0.15092850  0.12831920     0.19300
C2760       C  0.11785171  0.17607467  0.12386677     0.01500
C2761       C  0.15053656  0.19849225  0.12001021    -0.14600
C2762       C  0.18383902  0.19464709  0.12033506    -0.12300
C2763       C  0.18615386  0.16845078  0.12451434     0.01000
C2764       C  0.15481145  0.14737835  0.12861473    -0.24500
H2765       H  0.03651034  0.21676918  0.11495672     0.09000
H2766       H  0.09850290  0.21921493  0.11571534     0.12600
H2767       H  0.99046012  0.13356833  0.12994988     0.11300
H2768       H  0.03073573  0.11180143  0.13499834     0.12500
H2769       H  0.09156618  0.10976627  0.13578004     0.11500
H2770       H  0.15118199  0.21887421  0.11661284     0.08600
H2771       H  0.20768643  0.21193742  0.11715876     0.11900
H2772       H  0.15625836  0.12727896  0.13190346     0.13700
C2773       C  0.49472227  0.14099454  0.12172819    -0.01800
C2774       C  0.50447046  0.12159158  0.12622105    -0.09800
C2775       C  0.54246434  0.12734522  0.12658359    -0.18600
C2776       C  0.57224185  0.15292894  0.12243851     0.03800
C2777       C  0.56204158  0.17191841  0.11780537     0.17900
C2778       C  0.52366529  0.16575585  0.11748201    -0.20100
C2779       C  0.59029216  0.19731324  0.11355887    -0.21300
C2780       C  0.62866295  0.20431261  0.11380951    -0.19900
C2781       C  0.63973665  0.18615738  0.11832057     0.19300
C2782       C  0.61170111  0.16034045  0.12271945     0.01500
C2783       C  0.62436901  0.14300296  0.12720846    -0.14600
C2784       C  0.66286071  0.15034413  0.12725748    -0.12300
C2785       C  0.69032052  0.17513335  0.12284311     0.01000
C2786       C  0.67861118  0.19330788  0.11841644    -0.24500
H2787       H  0.48281303  0.10228025  0.12955746     0.09000
H2788       H  0.54750903  0.11149154  0.13019679     0.12600
H2789       H  0.51662689  0.18099738  0.11396834     0.11300
H2790       H  0.58265638  0.21189209  0.11001501     0.12500
H2791       H  0.64981077  0.22402768  0.11044504     0.11500
H2792       H  0.60528667  0.12336824  0.13073457     0.08600
H2793       H  0.67079820  0.13566877  0.13073825     0.11900
H2794       H  0.69956635  0.21262826  0.11499350     0.13700
C2795       C  0.43016309  0.03516752  0.06930741    -0.01800
C2796       C  0.45574659  0.07187886  0.07198915    -0.09800
C2797       C  0.44683567  0.08315586  0.07760105    -0.18600
C2798       C  0.41158057  0.05811075  0.08078759     0.03800
C2799       C  0.38545336  0.02088871  0.07808364     0.17900
C2800       C  0.39490320  0.00974346  0.07240749    -0.20100
C2801       C  0.34999952  0.99515440  0.08105310    -0.21300
C2802       C  0.33969064  0.00581039  0.08659996    -0.19900
C2803       C  0.36461617  0.04243425  0.08934419     0.19300
C2804       C  0.40116952  0.06890425  0.08651400     0.01500
C2805       C  0.42564211  0.10517183  0.08952351    -0.14600
C2806       C  0.41399439  0.11510483  0.09500855    -0.12300
C2807       C  0.37756200  0.08947292  0.09773514     0.01000
C2808       C  0.35311441  0.05289997  0.09488409    -0.24500
H2809       H  0.48315931  0.09230861  0.06974710     0.09000
H2810       H  0.46820786  0.11188060  0.07928835     0.12600
H2811       H  0.37465008  0.98131292  0.07039752     0.11300
H2812       H  0.32992543  0.96667084  0.07904595     0.12500
H2813       H  0.31188771  0.98531438  0.08874224     0.11500
H2814       H  0.45404199  0.12670015  0.08776608     0.08600
H2815       H  0.43377144  0.14338611  0.09709707     0.11900
H2816       H  0.32506051  0.03248217  0.09696898     0.13700
C2817       C  0.33231858  0.15661121  0.18255553    -0.01800
C2818       C  0.29727665  0.12871207  0.17962714    -0.09800
C2819       C  0.29075237  0.13149740  0.17331966    -0.18600
C2820       C  0.31929474  0.16238063  0.16964649     0.03800
C2821       C  0.35505174  0.19021990  0.17258704     0.17900
C2822       C  0.36108818  0.18729404  0.17895832    -0.20100
C2823       C  0.38475823  0.22086194  0.16914711    -0.21300
C2824       C  0.38017325  0.22406858  0.16282999    -0.19900
C2825       C  0.34542043  0.19721030  0.15979278     0.19300
C2826       C  0.31408748  0.16636284  0.16315606     0.01500
C2827       C  0.27927361  0.14078401  0.15984311    -0.14600
C2828       C  0.27677755  0.14428618  0.15341651    -0.12300
C2829       C  0.30870423  0.17341835  0.15006784     0.01000
C2830       C  0.34242526  0.20053149  0.15336171    -0.24500
H2831       H  0.27424765  0.10471649  0.18224369     0.09000
H2832       H  0.26311052  0.10892471  0.17144545     0.12600
H2833       H  0.38822439  0.20925932  0.18112456     0.11300
H2834       H  0.41204945  0.24223758  0.17134315     0.12500
H2835       H  0.40414251  0.24771373  0.16029062     0.11500
H2836       H  0.25376030  0.11729959  0.16207123     0.08600
H2837       H  0.25025834  0.12301341  0.15103263     0.11900
H2838       H  0.36747387  0.22332779  0.15087920     0.13700
C2839       C  0.65819030  0.14734801  0.20925171    -0.01800
C2840       C  0.65472802  0.17079396  0.20466696    -0.09800
C2841       C  0.62050314  0.17321705  0.20412370    -0.18600
C2842       C  0.58828458  0.15194512  0.20814931     0.03800
C2843       C  0.59180086  0.12778224  0.21272566     0.17900
C2844       C  0.62646749  0.12593319  0.21325545    -0.20100
C2845       C  0.56069368  0.10551124  0.21677036    -0.21300
C2846       C  0.52613875  0.10690894  0.21641961    -0.19900
C2847       C  0.52199388  0.13095149  0.21205912     0.19300
C2848       C  0.55283234  0.15383510  0.20784356     0.01500
C2849       C  0.54689473  0.17792180  0.20359401    -0.14600
C2850       C  0.51212589  0.17974783  0.20363921    -0.12300
C2851       C  0.48211299  0.15747061  0.20787199     0.01000
C2852       C  0.48724288  0.13268334  0.21199461    -0.24500
H2853       H  0.67874622  0.18769572  0.20149709     0.09000
H2854       H  0.62014934  0.19191684  0.20050372     0.12600
H2855       H  0.62855782  0.10740431  0.21678212     0.11300
H2856       H  0.56313260  0.08692176  0.22024549     0.12500
H2857       H  0.50263121  0.08939495  0.21964159     0.11500
H2858       H  0.56882365  0.19621434  0.20025259     0.08600
H2859       H  0.50908853  0.19923865  0.20042547     0.11900
H2860       H  0.46431342  0.11500410  0.21529410     0.13700
C2861       C  0.16768969  0.17356986  0.21348708    -0.01800
C2862       C  0.14245592  0.15257005  0.21839204    -0.09800
C2863       C  0.10467865  0.14739291  0.21873565    -0.18600
C2864       C  0.09069186  0.16284030  0.21412392     0.03800
C2865       C  0.11695462  0.18531420  0.20928283     0.17900
C2866       C  0.15492608  0.19053731  0.20902197    -0.20100
C2867       C  0.10497063  0.20181967  0.20463978    -0.21300
C2868       C  0.06713991  0.19600304  0.20463288    -0.19900
C2869       C  0.04033863  0.17326021  0.20923695     0.19300
C2870       C  0.05150861  0.15633289  0.21406761     0.01500
C2871       C  0.02266740  0.13300133  0.21852146    -0.14600
C2872       C  0.98429205  0.12659068  0.21813191    -0.12300
C2873       C  0.97363405  0.14335387  0.21332635     0.01000
C2874       C  0.00210604  0.16694576  0.20894726    -0.24500
H2875       H  0.15169339  0.13954919  0.22196431     0.09000
H2876       H  0.08704544  0.13082579  0.22262911     0.12600
H2877       H  0.17420330  0.20707226  0.20522632     0.11300
H2878       H  0.12487471  0.21904074  0.20095170     0.12500
H2879       H  0.05859386  0.20892005  0.20094129     0.11500
H2880       H  0.02866251  0.11890917  0.22230808     0.08600
H2881       H  0.96290909  0.10828148  0.22157891     0.11900
H2882       H  0.99453800  0.18040838  0.20521049     0.13700
C2883       C  0.83399183  0.00625620  0.12493719    -0.01800
C2884       C  0.85307876  0.99686723  0.12954424    -0.09800
C2885       C  0.85038095  0.95983838  0.12962857    -0.18600
C2886       C  0.82866325  0.93106562  0.12504481     0.03800
C2887       C  0.80943395  0.94087463  0.12040183     0.17900
C2888       C  0.81193334  0.97770968  0.12042747    -0.20100
C2889       C  0.78825878  0.91416655  0.11566587    -0.21300
C2890       C  0.78664017  0.87808350  0.11532092    -0.19900
C2891       C  0.80539524  0.86742661  0.11978355     0.19300
C2892       C  0.82587633  0.89329068  0.12479913     0.01500
C2893       C  0.84265308  0.88014974  0.12932336    -0.14600
C2894       C  0.84036755  0.84359013  0.12876698    -0.12300
C2895       C  0.82156663  0.81886956  0.12367238     0.01000
C2896       C  0.80379591  0.83097489  0.11923360    -0.24500
H2897       H  0.87037961  0.01825543  0.13307162     0.09000
H2898       H  0.86619879  0.95488048  0.13326782     0.12600
H2899       H  0.79703459  0.98430566  0.11679358     0.11300
H2900       H  0.77340388  0.92153659  0.11212915     0.12500
H2901       H  0.77061538  0.85837696  0.11152862     0.11500
H2902       H  0.85764218  0.89739943  0.13335465     0.08600
H2903       H  0.85394637  0.83495269  0.13233422     0.11900
H2904       H  0.78870158  0.81204810  0.11531526     0.13700
C2905       C  0.85083888  0.33740143  0.11933220    -0.01800
C2906       C  0.87525830  0.36970896  0.12306330    -0.09800
C2907       C  0.87078682  0.40263683  0.12324540    -0.18600
C2908       C  0.84133100  0.40431654  0.11971031     0.03800
C2909       C  0.81818796  0.37264913  0.11562741     0.17900
C2910       C  0.82292252  0.33946924  0.11549813    -0.20100
C2911       C  0.79024354  0.37418349  0.11176846    -0.21300
C2912       C  0.78455783  0.40648853  0.11193891    -0.19900
C2913       C  0.80579983  0.43738197  0.11611026     0.19300
C2914       C  0.83410208  0.43632527  0.12010672     0.01500
C2915       C  0.85336852  0.46685913  0.12446746    -0.14600
C2916       C  0.84567606  0.49759824  0.12476524    -0.12300
C2917       C  0.81851790  0.49933889  0.12074731     0.01000
C2918       C  0.79866054  0.46912490  0.11639373    -0.24500
H2919       H  0.89763179  0.36939796  0.12596433     0.09000
H2920       H  0.89102585  0.42627455  0.12620093     0.12600
H2921       H  0.80420475  0.31491837  0.11250261     0.11300
H2922       H  0.77271743  0.35027756  0.10859459     0.12500
H2923       H  0.76287130  0.40693782  0.10888062     0.11500
H2924       H  0.87410225  0.46766477  0.12781463     0.08600
H2925       H  0.86164094  0.52043476  0.12817540     0.11900
H2926       H  0.77740957  0.47004551  0.11328815     0.13700
C2927       C  0.17056534  0.98605246  0.12366420    -0.01800
C2928       C  0.14192437  0.98361707  0.12780914    -0.09800
C2929       C  0.10560697  0.94914048  0.12835659    -0.18600
C2930       C  0.09662788  0.91547407  0.12478934     0.03800
C2931       C  0.12581446  0.91793904  0.12060816     0.17900
C2932       C  0.16221800  0.95293626  0.12008033    -0.20100
C2933       C  0.11842127  0.88554139  0.11694046    -0.21300
C2934       C  0.08235446  0.85094260  0.11723915    -0.19900
C2935       C  0.05289899  0.84777902  0.12124822     0.19300
C2936       C  0.05965333  0.87966558  0.12515762     0.01500
C2937       C  0.02898347  0.87426075  0.12922263    -0.14600
C2938       C  0.99266279  0.83921778  0.12921357    -0.12300
C2939       C  0.98574096  0.80849202  0.12517190     0.01000
C2940       C  0.01645218  0.81290026  0.12129402    -0.24500
H2941       H  0.14733929  0.00873663  0.13061625     0.09000
H2942       H  0.08510652  0.94993327  0.13158322     0.12600
H2943       H  0.18410708  0.95431206  0.11687099     0.11300
H2944       H  0.14054465  0.88710007  0.11376836     0.12500
H2945       H  0.07736989  0.82653464  0.11427844     0.11500
H2946       H  0.03198394  0.89664907  0.13242850     0.08600
H2947       H  0.96967427  0.83656755  0.13228786     0.11900
H2948       H  0.01190547  0.78925011  0.11818645     0.13700
C2949       C  0.65669195  0.49383314  0.11964577    -0.01800
C2950       C  0.65533698  0.46468253  0.11571334    -0.09800
C2951       C  0.62441319  0.42588981  0.11606562    -0.18600
C2952       C  0.59373886  0.41490090  0.12040813     0.03800
C2953       C  0.59493867  0.44479027  0.12429177     0.17900
C2954       C  0.62592196  0.48366773  0.12384053    -0.20100
C2955       C  0.56553209  0.43570751  0.12869050    -0.21300
C2956       C  0.53453197  0.39749515  0.12928933    -0.19900
C2957       C  0.53221598  0.36748123  0.12550068     0.19300
C2958       C  0.56188136  0.37549512  0.12104033     0.01500
C2959       C  0.55809587  0.34373450  0.11740112    -0.14600
C2960       C  0.52538166  0.30603903  0.11800530    -0.12300
C2961       C  0.49566367  0.29872953  0.12227652     0.01000
C2962       C  0.49982846  0.32953709  0.12609119    -0.24500
H2963       H  0.67875079  0.47158948  0.11242863     0.09000
H2964       H  0.62564412  0.40517856  0.11292679     0.12600
H2965       H  0.62651157  0.50587654  0.12690271     0.11300
H2966       H  0.56647658  0.45834697  0.13168715     0.12500
H2967       H  0.51203857  0.39142602  0.13271651     0.11500
H2968       H  0.57959986  0.34711683  0.11399512     0.08600
H2969       H  0.52312434  0.28266423  0.11505164     0.11900
H2970       H  0.47711938  0.32438248  0.12942973     0.13700
C2971       C  0.60438785  0.56042488  0.06933614    -0.01800
C2972       C  0.61151889  0.59453087  0.07252193    -0.09800
C2973       C  0.63494929  0.60682964  0.07785815    -0.18600
C2974       C  0.65232319  0.58538356  0.08021238     0.03800
C2975       C  0.64486109  0.55069610  0.07699481     0.17900
C2976       C  0.62114438  0.53860135  0.07165025    -0.20100
C2977       C  0.66123137  0.52827693  0.07911207    -0.21300
C2978       C  0.68456230  0.53929337  0.08440940    -0.19900
C2979       C  0.69227235  0.57310305  0.08772420     0.19300
C2980       C  0.67663604  0.59690713  0.08564298     0.01500
C2981       C  0.68601019  0.63113562  0.08910227    -0.14600
C2982       C  0.70922380  0.64086809  0.09444131    -0.12300
C2983       C  0.72390804  0.61691976  0.09656586     0.01000
C2984       C  0.71539896  0.58310875  0.09313663    -0.24500
H2985       H  0.59911766  0.61206726  0.07086957     0.09000
H2986       H  0.63891185  0.63330330  0.08002808     0.12600
H2987       H  0.61605746  0.51214277  0.06925881     0.11300
H2988       H  0.65581397  0.50188651  0.07666476     0.12500
H2989       H  0.69657239  0.52113355  0.08593634     0.11500
H2990       H  0.67576900  0.65100508  0.08781910     0.08600
H2991       H  0.71518729  0.66713830  0.09697191     0.11900
H2992       H  0.72676310  0.56441229  0.09467995     0.13700
C2993       C  0.01059021  0.81831751  0.21360558    -0.01800
C2994       C  0.01072746  0.84673315  0.21758326    -0.09800
C2995       C  0.04323910  0.88467948  0.21791306    -0.18600
C2996       C  0.07688614  0.89564806  0.21423062     0.03800
C2997       C  0.07663819  0.86663707  0.21023447     0.17900
C2998       C  0.04395811  0.82848035  0.21000664    -0.20100
C2999       C  0.10870592  0.87600814  0.20637854    -0.21300
C3000       C  0.14091521  0.91380886  0.20632190    -0.19900
C3001       C  0.14209997  0.94300659  0.21018799     0.19300
C3002       C  0.11046129  0.93442044  0.21426994     0.01500
C3003       C  0.11390779  0.96510908  0.21816489    -0.14600
C3004       C  0.14695713  0.00292327  0.21787275    -0.12300
C3005       C  0.17736165  0.01135892  0.21367623     0.01000
C3006       C  0.17482337  0.98095026  0.20992875    -0.24500
H3007       H  0.98527385  0.83991682  0.22039959     0.09000
H3008       H  0.04082811  0.90491693  0.22100957     0.12600
H3009       H  0.04429189  0.80686573  0.20691267     0.11300
H3010       H  0.10865491  0.85407210  0.20331723     0.12500
H3011       H  0.16507675  0.92028521  0.20321277     0.11500
H3012       H  0.09156537  0.96087074  0.22146814     0.08600
H3013       H  0.14831045  0.02578580  0.22085479     0.11900
H3014       H  0.19844498  0.98680650  0.20673526     0.13700
C3015       C  0.49320709  0.33002166  0.20894460    -0.01800
C3016       C  0.50133012  0.36283878  0.21255065    -0.09800
C3017       C  0.53753778  0.39731138  0.21214420    -0.18600
C3018       C  0.56724990  0.40013893  0.20811681     0.03800
C3019       C  0.55963014  0.36639391  0.20462492     0.17900
C3020       C  0.52250614  0.33199629  0.20496150    -0.20100
C3021       C  0.58940579  0.36707574  0.20094423    -0.21300
C3022       C  0.62687400  0.40044150  0.20077085    -0.19900
C3023       C  0.63497845  0.43450656  0.20406371     0.19300
C3024       C  0.60464625  0.43500111  0.20760097     0.01500
C3025       C  0.61277926  0.47054503  0.21045808    -0.14600
C3026       C  0.65011667  0.50333951  0.21023128    -0.12300
C3027       C  0.68103750  0.50244924  0.20712482     0.01000
C3028       C  0.67308821  0.46810453  0.20389563    -0.24500
H3029       H  0.47949400  0.36198095  0.21571172     0.09000
H3030       H  0.54166850  0.42083928  0.21518930     0.12600
H3031       H  0.51681427  0.30640634  0.20224673     0.11300
H3032       H  0.58394396  0.34134368  0.19829408     0.12500
H3033       H  0.64953023  0.39970256  0.19800746     0.11500
H3034       H  0.59079331  0.47422690  0.21286056     0.08600
H3035       H  0.65478955  0.52975244  0.21258232     0.11900
H3036       H  0.69655200  0.46720999  0.20139067     0.13700
C3037       C  0.83675015  0.80698295  0.21273561    -0.01800
C3038       C  0.80686587  0.80652162  0.20910266    -0.09800
C3039       C  0.79864743  0.83707616  0.20938252    -0.18600
C3040       C  0.82051645  0.86986309  0.21327625     0.03800
C3041       C  0.85085952  0.87038454  0.21697097     0.17900
C3042       C  0.85832283  0.83881773  0.21674175    -0.20100
C3043       C  0.87404933  0.90277232  0.22077561    -0.21300
C3044       C  0.86804624  0.93482189  0.22094810    -0.19900
C3045       C  0.83846247  0.93515900  0.21736453     0.19300
C3046       C  0.81394524  0.90250715  0.21352437     0.01500
C3047       C  0.78435764  0.90428653  0.21002648    -0.14600
C3048       C  0.78045856  0.93771485  0.21014193    -0.12300
C3049       C  0.80557760  0.97043465  0.21377028     0.01000
C3050       C  0.83391705  0.96846397  0.21748912    -0.24500
H3051       H  0.78941247  0.78217662  0.20599796     0.09000
H3052       H  0.77532793  0.83428370  0.20641281     0.12600
H3053       H  0.88160038  0.83956261  0.21955203     0.11300
H3054       H  0.89735771  0.90356454  0.22357839     0.12500
H3055       H  0.88690962  0.95969107  0.22387522     0.11500
H3056       H  0.76401344  0.88059860  0.20708620     0.08600
H3057       H  0.75802879  0.93812627  0.20726781     0.11900
H3058       H  0.85350749  0.99346273  0.22034060     0.13700
C3059       C  0.84379296  0.49265279  0.20879926    -0.01800
C3060       C  0.87109771  0.48684947  0.21211693    -0.09800
C3061       C  0.87069907  0.45116370  0.21178860    -0.18600
C3062       C  0.84243581  0.41953633  0.20815662     0.03800
C3063       C  0.81447535  0.42531801  0.20483111     0.17900
C3064       C  0.81570035  0.46178998  0.20511140    -0.20100
C3065       C  0.78521328  0.39450978  0.20131211    -0.21300
C3066       C  0.78286479  0.35789333  0.20107225    -0.19900
C3067       C  0.81008765  0.35127881  0.20426570     0.19300
C3068       C  0.84059285  0.38226381  0.20778468     0.01500
C3069       C  0.86793580  0.37458753  0.21080344    -0.14600
C3070       C  0.86433535  0.33752233  0.21054343    -0.12300
C3071       C  0.83338840  0.30642014  0.20729258     0.01000
C3072       C  0.80671514  0.31372949  0.20404682    -0.24500
H3073       H  0.89318212  0.51020115  0.21497257     0.09000
H3074       H  0.89267449  0.44924010  0.21450876     0.12600
H3075       H  0.79415672  0.46583468  0.20256436     0.11300
H3076       H  0.76369057  0.39862650  0.19877905     0.12500
H3077       H  0.75955418  0.33456661  0.19837128     0.11500
H3078       H  0.89246246  0.39650105  0.21343837     0.08600
H3079       H  0.88582617  0.33309538  0.21302338     0.11900
H3080       H  0.78264114  0.28995782  0.20152303     0.13700
C3081       C  0.81999265  0.64660831  0.18214885    -0.01800
C3082       C  0.81918484  0.67787014  0.17912848    -0.09800
C3083       C  0.82753054  0.68473413  0.17282820    -0.18600
C3084       C  0.83704556  0.66041304  0.16928047     0.03800
C3085       C  0.83551387  0.62732462  0.17225540     0.17900
C3086       C  0.82721138  0.62081337  0.17862599    -0.20100
C3087       C  0.84276596  0.60120346  0.16886697    -0.21300
C3088       C  0.85122585  0.60705643  0.16257692    -0.19900
C3089       C  0.85357352  0.63968262  0.15954421     0.19300
C3090       C  0.84740545  0.66735757  0.16287302     0.01500
C3091       C  0.85184221  0.70067855  0.15963038    -0.14600
C3092       C  0.85900895  0.70464028  0.15325683    -0.12300
C3093       C  0.86232315  0.67578821  0.14990428     0.01000
C3094       C  0.86098008  0.64413450  0.15315063    -0.24500
H3095       H  0.81308590  0.69799268  0.18168189     0.09000
H3096       H  0.82637553  0.70939502  0.17087472     0.12600
H3097       H  0.82769779  0.59636073  0.18087259     0.11300
H3098       H  0.84151282  0.57583197  0.17108378     0.12500
H3099       H  0.85598826  0.58588105  0.16006334     0.11500
H3100       H  0.84936396  0.72390188  0.16186916     0.08600
H3101       H  0.86023926  0.72962255  0.15091285     0.11900
H3102       H  0.86393780  0.62177159  0.15065324     0.13700
C3103       C  0.70411818  0.93285502  0.26410593    -0.01800
C3104       C  0.67706701  0.94190047  0.26139582    -0.09800
C3105       C  0.68667594  0.96508053  0.25605696    -0.18600
C3106       C  0.72383481  0.97992167  0.25319144     0.03800
C3107       C  0.75120808  0.97082097  0.25596669     0.17900
C3108       C  0.74130542  0.94783625  0.26136281    -0.20100
C3109       C  0.78822332  0.98421701  0.25329641    -0.21300
C3110       C  0.79831800  0.00550585  0.24781587    -0.19900
C3111       C  0.77193368  0.01456744  0.24492088     0.19300
C3112       C  0.73462863  0.00273130  0.24761871     0.01500
C3113       C  0.70982754  0.01404187  0.24458296    -0.14600
C3114       C  0.72117902  0.03509778  0.23901614    -0.12300
C3115       C  0.75748787  0.04551498  0.23627176     0.01000
C3116       C  0.78276282  0.03532405  0.23931112    -0.24500
H3117       H  0.64817829  0.93102165  0.26340600     0.09000
H3118       H  0.66420012  0.97043865  0.25424139     0.12600
H3119       H  0.76268365  0.94133422  0.26339624     0.11300
H3120       H  0.80930631  0.97758241  0.25540543     0.12500
H3121       H  0.82696548  0.01481884  0.24581059     0.11500
H3122       H  0.68149215  0.00707674  0.24639327     0.08600
H3123       H  0.70118646  0.04291129  0.23682852     0.11900
H3124       H  0.81117245  0.04352709  0.23730860     0.13700
C3125       C  0.65838487  0.82247028  0.31764715    -0.01800
C3126       C  0.62969649  0.82656108  0.32089264    -0.09800
C3127       C  0.63390156  0.83516221  0.32723194    -0.18600
C3128       C  0.66723720  0.84014725  0.33055409     0.03800
C3129       C  0.69541608  0.83444326  0.32729572     0.17900
C3130       C  0.69080664  0.82578491  0.32093814    -0.20100
C3131       C  0.72832184  0.83774616  0.33038305    -0.21300
C3132       C  0.73366144  0.84609790  0.33668222    -0.19900
C3133       C  0.70655878  0.85199363  0.34003794     0.19300
C3134       C  0.67343438  0.85001890  0.33699566     0.01500
C3135       C  0.64793595  0.85787272  0.34054829    -0.14600
C3136       C  0.65332899  0.86427219  0.34692260    -0.12300
C3137       C  0.68424278  0.86310290  0.35000409     0.01000
C3138       C  0.71170528  0.85854879  0.34646618    -0.24500
H3139       H  0.60419967  0.82392871  0.31850545     0.09000
H3140       H  0.61059345  0.83779555  0.32939525     0.12600
H3141       H  0.71313833  0.82237543  0.31852606     0.11300
H3142       H  0.74992950  0.83344945  0.32791762     0.12500
H3143       H  0.75910232  0.84777190  0.33895171     0.11500
H3144       H  0.62309662  0.85855107  0.33855870     0.08600
H3145       H  0.63189370  0.86827778  0.34949092     0.11900
H3146       H  0.73593943  0.85781881  0.34875347     0.13700
C3147       C  0.00627769  0.81702642  0.37471784    -0.01800
C3148       C  0.99818696  0.83768784  0.37022384    -0.09800
C3149       C  0.96206429  0.83672305  0.37019286    -0.18600
C3150       C  0.93306426  0.81533825  0.37473633     0.03800
C3151       C  0.94102336  0.79331881  0.37912711     0.17900
C3152       C  0.97700689  0.79414008  0.37904955    -0.20100
C3153       C  0.91339506  0.77113603  0.38367484    -0.21300
C3154       C  0.87779680  0.77046603  0.38399638    -0.19900
C3155       C  0.86910950  0.79218297  0.37980631     0.19300
C3156       C  0.89665347  0.81516392  0.37513630     0.01500
C3157       C  0.88674280  0.83741356  0.37115261    -0.14600
C3158       C  0.85072094  0.83617385  0.37170550    -0.12300
C3159       C  0.82329442  0.81278089  0.37623455     0.01000
C3160       C  0.83295274  0.79109927  0.38029402    -0.24500
H3161       H  0.02006451  0.85523791  0.36678562     0.09000
H3162       H  0.95792277  0.85333967  0.36659981     0.12600
H3163       H  0.98247272  0.77748334  0.38252098     0.11300
H3164       H  0.91944876  0.75432292  0.38703381     0.12500
H3165       H  0.85702440  0.75305616  0.38757994     0.11500
H3166       H  0.90625983  0.85626504  0.36759030     0.08600
H3167       H  0.84442781  0.85378591  0.36855375     0.11900
H3168       H  0.81221555  0.77312823  0.38384563     0.13700
C3169       C  0.33807011  0.83934437  0.38032638    -0.01800
C3170       C  0.34295393  0.81701408  0.38493495    -0.09800
C3171       C  0.37517488  0.81113692  0.38485119    -0.18600
C3172       C  0.40367601  0.82729275  0.38010153     0.03800
C3173       C  0.39853676  0.84985320  0.37542921     0.17900
C3174       C  0.36631663  0.85602394  0.37562302    -0.20100
C3175       C  0.42517332  0.86554517  0.37051725    -0.21300
C3176       C  0.45683644  0.85913702  0.37011845    -0.19900
C3177       C  0.46295337  0.83738000  0.37467246     0.19300
C3178       C  0.43675255  0.82146062  0.37976683     0.01500
C3179       C  0.44494183  0.80053538  0.38430486    -0.14600
C3180       C  0.47749043  0.79529408  0.38376439    -0.12300
C3181       C  0.50298390  0.81061568  0.37869623     0.01000
C3182       C  0.49538475  0.83168035  0.37416931    -0.24500
H3183       H  0.32148784  0.80349453  0.38860267     0.09000
H3184       H  0.37648856  0.79321155  0.38851199     0.12600
H3185       H  0.36273566  0.87301705  0.37198549     0.11300
H3186       H  0.42128541  0.88258936  0.36692468     0.12500
H3187       H  0.47678446  0.87142980  0.36622959     0.11500
H3188       H  0.42702344  0.78816633  0.38836594     0.08600
H3189       H  0.48280297  0.77934810  0.38737111     0.11900
H3190       H  0.51500471  0.84414697  0.37024434     0.13700
C3191       C  0.50226100  0.83228486  0.29043342    -0.01800
C3192       C  0.47689168  0.81279573  0.29541168    -0.09800
C3193       C  0.44033604  0.81063545  0.29588827    -0.18600
C3194       C  0.42782523  0.82815389  0.29138677     0.03800
C3195       C  0.45390194  0.84835727  0.28639760     0.17900
C3196       C  0.49044086  0.85005978  0.28595354    -0.20100
C3197       C  0.44341815  0.86680293  0.28185692    -0.21300
C3198       C  0.40763214  0.86581017  0.28215815    -0.19900
C3199       C  0.38115455  0.84588453  0.28696064     0.19300
C3200       C  0.39052330  0.82644613  0.29163178     0.01500
C3201       C  0.36191197  0.80588623  0.29626896    -0.14600
C3202       C  0.32553374  0.80457926  0.29621561    -0.12300
C3203       C  0.31660775  0.82393181  0.29158427     0.01000
C3204       C  0.34498806  0.84487204  0.28702616    -0.24500
H3205       H  0.48510588  0.79870477  0.29895206     0.09000
H3206       H  0.42259859  0.79515375  0.29984095     0.12600
H3207       H  0.50981180  0.86548503  0.28210730     0.11300
H3208       H  0.46310510  0.88223196  0.27804602     0.12500
H3209       H  0.40045563  0.88048288  0.27856674     0.11500
H3210       H  0.36652581  0.79003722  0.29993947     0.08600
H3211       H  0.30419652  0.78798175  0.29977675     0.11900
H3212       H  0.33870642  0.85995347  0.28338592     0.13700
C3213       C  0.98123914  0.79815692  0.28603037    -0.01800
C3214       C  0.94902108  0.77302447  0.28970604    -0.09800
C3215       C  0.91489651  0.77553774  0.28968300    -0.18600
C3216       C  0.91197568  0.80378181  0.28600761     0.03800
C3217       C  0.94374585  0.82758609  0.28199266     0.17900
C3218       C  0.97785513  0.82449068  0.28201777    -0.20100
C3219       C  0.94180669  0.85523496  0.27813431    -0.21300
C3220       C  0.90947091  0.86076414  0.27834370    -0.19900
C3221       C  0.87856421  0.83912741  0.28247126     0.19300
C3222       C  0.87923702  0.81004543  0.28631810     0.01500
C3223       C  0.84783943  0.78954025  0.29049665    -0.14600
C3224       C  0.81769673  0.79823323  0.29095966    -0.12300
C3225       C  0.81718360  0.82716546  0.28722288     0.01000
C3226       C  0.84743260  0.84707196  0.28289848    -0.24500
H3227       H  0.95043050  0.75186146  0.29275548     0.09000
H3228       H  0.89167196  0.75534930  0.29268664     0.12600
H3229       H  0.00234340  0.84374303  0.27906655     0.11300
H3230       H  0.96578561  0.87321732  0.27501446     0.12500
H3231       H  0.90911034  0.88282268  0.27537123     0.11500
H3232       H  0.84596262  0.76713282  0.29358154     0.08600
H3233       H  0.79449410  0.78192519  0.29428589     0.11900
H3234       H  0.84731016  0.86945458  0.27997348     0.13700
C3235       C  0.17680474  0.82737400  0.31717509    -0.01800
C3236       C  0.17616771  0.85879190  0.32018601    -0.09800
C3237       C  0.16804542  0.85734129  0.32649863    -0.18600
C3238       C  0.16029944  0.82423145  0.33010101     0.03800
C3239       C  0.16269877  0.79309632  0.32712589     0.17900
C3240       C  0.17075507  0.79483407  0.32072974    -0.20100
C3241       C  0.15661524  0.76022610  0.33054500    -0.21300
C3242       C  0.14836365  0.75766209  0.33684929    -0.19900
C3243       C  0.14549733  0.78767092  0.33989389     0.19300
C3244       C  0.15080992  0.82114318  0.33655661     0.01500
C3245       C  0.14663966  0.85010644  0.33984888    -0.14600
C3246       C  0.14003100  0.84712544  0.34624607    -0.12300
C3247       C  0.13695027  0.81508617  0.34958432     0.01000
C3248       C  0.13847002  0.78485865  0.34630684    -0.24500
H3249       H  0.18106988  0.88455995  0.31762007     0.09000
H3250       H  0.16793734  0.88264408  0.32841400     0.12600
H3251       H  0.17123910  0.77031473  0.31849808     0.11300
H3252       H  0.15850556  0.73641261  0.32833626     0.12500
H3253       H  0.14434173  0.73203604  0.33937098     0.11500
H3254       H  0.14900162  0.87579373  0.33763541     0.08600
H3255       H  0.13884212  0.87085078  0.34861527     0.11900
H3256       H  0.13580050  0.75963080  0.34878943     0.13700
C3257       C  0.04838299  0.74939592  0.26433655    -0.01800
C3258       C  0.03249801  0.71040973  0.26226023    -0.09800
C3259       C  0.01061555  0.69762517  0.25676146    -0.18600
C3260       C  0.00394616  0.72358896  0.25308933     0.03800
C3261       C  0.02030681  0.76312395  0.25519144     0.17900
C3262       C  0.04189921  0.77546601  0.26075437    -0.20100
C3263       C  0.01525033  0.79033601  0.25171276    -0.21300
C3264       C  0.99417270  0.77922067  0.24619464    -0.19900
C3265       C  0.97737175  0.74052414  0.24400873     0.19300
C3266       C  0.98189185  0.71201594  0.24740778     0.01500
C3267       C  0.96412930  0.67335443  0.24494955    -0.14600
C3268       C  0.94307420  0.66365038  0.23935371    -0.12300
C3269       C  0.93877051  0.69195751  0.23600929     0.01000
C3270       C  0.95610309  0.73035833  0.23841541    -0.24500
H3271       H  0.03687262  0.68947705  0.26490892     0.09000
H3272       H  0.99945189  0.66728618  0.25549156     0.12600
H3273       H  0.05410449  0.80575433  0.26225444     0.11300
H3274       H  0.02777595  0.82054578  0.25326668     0.12500
H3275       H  0.99091931  0.80111778  0.24361759     0.11500
H3276       H  0.96598183  0.64995763  0.24724531     0.08600
H3277       H  0.93007449  0.63373768  0.23764707     0.11900
H3278       H  0.95330468  0.75275496  0.23590614     0.13700
C3279       C  0.81372359  0.97503953  0.37503692    -0.01800
C3280       C  0.81443905  0.00546398  0.37856523    -0.09800
C3281       C  0.84855714  0.04175882  0.37915313    -0.18600
C3282       C  0.88357535  0.04929158  0.37617797     0.03800
C3283       C  0.88233567  0.01941812  0.37227161     0.17900
C3284       C  0.84757543  0.98256764  0.37175014    -0.20100
C3285       C  0.91592636  0.02645473  0.36897582    -0.21300
C3286       C  0.95057464  0.06255146  0.36945089    -0.19900
C3287       C  0.95279453  0.09209279  0.37336382     0.19300
C3288       C  0.91957413  0.08560976  0.37688721     0.01500
C3289       C  0.92394380  0.11562098  0.38101403    -0.14600
C3290       C  0.95934348  0.15117373  0.38142322    -0.12300
C3291       C  0.99149462  0.15807135  0.37774332     0.01000
C3292       C  0.98810086  0.12816629  0.37377213    -0.24500
H3293       H  0.78848806  0.00100173  0.38102859     0.09000
H3294       H  0.84641604  0.06330545  0.38196247     0.12600
H3295       H  0.84729587  0.95944989  0.36895809     0.11300
H3296       H  0.91531418  0.00401039  0.36597270     0.12500
H3297       H  0.97593469  0.06727456  0.36677805     0.11500
H3298       H  0.90071171  0.11248832  0.38403099     0.08600
H3299       H  0.96128616  0.17359953  0.38457188     0.11900
H3300       H  0.01308006  0.13288601  0.37098993     0.13700
C3301       C  0.49520794  0.64828408  0.37888093    -0.01800
C3302       C  0.46699858  0.64627468  0.38307490    -0.09800
C3303       C  0.42830360  0.61519175  0.38286135    -0.18600
C3304       C  0.41643117  0.58486543  0.37841599     0.03800
C3305       C  0.44519111  0.58699383  0.37418658     0.17900
C3306       C  0.48411415  0.61813987  0.37450767    -0.20100
C3307       C  0.43485465  0.55839368  0.36958085    -0.21300
C3308       C  0.39646668  0.52745286  0.36909197    -0.19900
C3309       C  0.36770565  0.52398127  0.37327269     0.19300
C3310       C  0.37715507  0.55253614  0.37800640     0.01500
C3311       C  0.34703370  0.54701335  0.38217987    -0.14600
C3312       C  0.30951349  0.51394519  0.38176425    -0.12300
C3313       C  0.30062357  0.48560301  0.37714659     0.01000
C3314       C  0.32972716  0.49136874  0.37283742    -0.24500
H3315       H  0.47456236  0.66927259  0.38648036     0.09000
H3316       H  0.40831807  0.61617002  0.38617470     0.12600
H3317       H  0.50557670  0.61933389  0.37122539     0.11300
H3318       H  0.45658734  0.56004411  0.36631540     0.12500
H3319       H  0.38936271  0.50573087  0.36547398     0.11500
H3320       H  0.35170026  0.56715084  0.38590840     0.08600
H3321       H  0.28756586  0.51029158  0.38514523     0.11900
H3322       H  0.32335694  0.46958961  0.36925408     0.13700
C3323       C  0.17124922  0.99394673  0.37641357    -0.01800
C3324       C  0.15082815  0.99870575  0.37145483    -0.09800
C3325       C  0.14888952  0.03303959  0.37079941    -0.18600
C3326       C  0.16775893  0.06428199  0.37507293     0.03800
C3327       C  0.18917928  0.05973035  0.38002333     0.17900
C3328       C  0.19047516  0.02476818  0.38067354    -0.20100
C3329       C  0.20925639  0.09012318  0.38430284    -0.21300
C3330       C  0.20846515  0.12495593  0.38379316    -0.19900
C3331       C  0.18705954  0.13000755  0.37905037     0.19300
C3332       C  0.16621409  0.09983805  0.37462280     0.01500
C3333       C  0.14445081  0.10653680  0.37001053    -0.14600
C3334       C  0.14294930  0.14147647  0.36990132    -0.12300
C3335       C  0.16329926  0.17088755  0.37433809     0.01000
C3336       C  0.18586680  0.16498885  0.37881396    -0.24500
H3337       H  0.13564516  0.97549353  0.36807409     0.09000
H3338       H  0.13248708  0.03423111  0.36688473     0.12600
H3339       H  0.20663250  0.02166250  0.38449952     0.11300
H3340       H  0.22576842  0.08697586  0.38806638     0.12500
H3341       H  0.22436177  0.14797409  0.38718513     0.11500
H3342       H  0.12766283  0.08507668  0.36649911     0.08600
H3343       H  0.12529082  0.14514561  0.36639583     0.11900
H3344       H  0.20190607  0.18733370  0.38229551     0.13700
C3345       C  0.18218072  0.68096620  0.37807940    -0.01800
C3346       C  0.19727919  0.67026248  0.38312264    -0.09800
C3347       C  0.19092892  0.63200823  0.38365265    -0.18600
C3348       C  0.16888060  0.60293446  0.37914614     0.03800
C3349       C  0.15446328  0.61423329  0.37396702     0.17900
C3350       C  0.16137737  0.65280268  0.37346663    -0.20100
C3351       C  0.13269504  0.58686148  0.36934232    -0.21300
C3352       C  0.12484955  0.54829063  0.36973946    -0.19900
C3353       C  0.13855945  0.53612706  0.37477210     0.19300
C3354       C  0.16062905  0.56315370  0.37956958     0.01500
C3355       C  0.17356306  0.54914491  0.38455502    -0.14600
C3356       C  0.16615306  0.51045678  0.38464563    -0.12300
C3357       C  0.14528411  0.48423098  0.37982195     0.01000
C3358       C  0.13090595  0.49716357  0.37496205    -0.24500
H3359       H  0.21356778  0.69135219  0.38674355     0.09000
H3360       H  0.20333726  0.62606954  0.38767712     0.12600
H3361       H  0.14945686  0.66050160  0.36952499     0.11300
H3362       H  0.12161152  0.59534159  0.36538497     0.12500
H3363       H  0.10804805  0.52785241  0.36606751     0.11500
H3364       H  0.18991150  0.56743874  0.38841944     0.08600
H3365       H  0.17740971  0.50125446  0.38848755     0.11900
H3366       H  0.11482265  0.47726446  0.37119007     0.13700
C3367       C  0.82653143  0.00288475  0.28514642    -0.01800
C3368       C  0.85502505  0.00429118  0.28105780    -0.09800
C3369       C  0.89290061  0.03717353  0.28084823    -0.18600
C3370       C  0.90367702  0.06998172  0.28475104     0.03800
C3371       C  0.87419018  0.06904923  0.28869575     0.17900
C3372       C  0.83625587  0.03590951  0.28884282    -0.20100
C3373       C  0.88285655  0.10089102  0.29258417    -0.21300
C3374       C  0.92042379  0.13347883  0.29273804    -0.19900
C3375       C  0.95035145  0.13495109  0.28903658     0.19300
C3376       C  0.94259383  0.10343766  0.28495784     0.01500
C3377       C  0.97431178  0.10668252  0.28136769    -0.14600
C3378       C  0.01210015  0.13966246  0.28187660    -0.12300
C3379       C  0.01950434  0.17031147  0.28597934     0.01000
C3380       C  0.98821319  0.16774829  0.28948181    -0.24500
H3381       H  0.84838719  0.97946246  0.27808688     0.09000
H3382       H  0.91320667  0.03581654  0.27764092     0.12600
H3383       H  0.81453939  0.03553721  0.29198459     0.11300
H3384       H  0.86048829  0.10043969  0.29557894     0.12500
H3385       H  0.92624103  0.15752952  0.29584324     0.11500
H3386       H  0.97096571  0.08404681  0.27818314     0.08600
H3387       H  0.03570480  0.14083713  0.27911923     0.11900
H3388       H  0.99329142  0.19135880  0.29263833     0.13700
C3389       C  0.33893675  0.48499472  0.29207446    -0.01800
C3390       C  0.34182688  0.51226111  0.29655326    -0.09800
C3391       C  0.37637508  0.54854521  0.29721231    -0.18600
C3392       C  0.40936756  0.55863746  0.29341013     0.03800
C3393       C  0.40689217  0.52987558  0.28912526     0.17900
C3394       C  0.37187172  0.49384259  0.28845102    -0.20100
C3395       C  0.43925714  0.53732328  0.28547459    -0.21300
C3396       C  0.47384973  0.57323378  0.28585380    -0.19900
C3397       C  0.47658237  0.60286320  0.28978819     0.19300
C3398       C  0.44454651  0.59622201  0.29363699     0.01500
C3399       C  0.44886042  0.62790310  0.29737450    -0.14600
C3400       C  0.48339401  0.66476145  0.29719924    -0.12300
C3401       C  0.51468015  0.67106096  0.29333946     0.01000
C3402       C  0.51104914  0.63954076  0.28974268    -0.24500
H3403       H  0.31697363  0.50590808  0.29948852     0.09000
H3404       H  0.37636618  0.56807509  0.30072431     0.12600
H3405       H  0.37029822  0.47259437  0.28507821     0.11300
H3406       H  0.43771917  0.51532194  0.28226691     0.12500
H3407       H  0.49834433  0.57822221  0.28292661     0.11500
H3408       H  0.42569040  0.62541344  0.30034905     0.08600
H3409       H  0.48522311  0.68858174  0.29998753     0.11900
H3410       H  0.53493035  0.64368786  0.28673354     0.13700
C3411       C  0.18443306  0.16429697  0.28585791    -0.01800
C3412       C  0.15811724  0.13624580  0.28163339    -0.09800
C3413       C  0.15262414  0.09826550  0.28146896    -0.18600
C3414       C  0.17344256  0.08701496  0.28554539     0.03800
C3415       C  0.20095085  0.11597906  0.28968855     0.17900
C3416       C  0.20622176  0.15403581  0.28979562    -0.20100
C3417       C  0.22257850  0.10665700  0.29380121    -0.21300
C3418       C  0.21685081  0.06881802  0.29400487    -0.19900
C3419       C  0.18935827  0.03938961  0.29010013     0.19300
C3420       C  0.16758117  0.04802258  0.28574687     0.01500
C3421       C  0.14065025  0.01708789  0.28185830    -0.14600
C3422       C  0.13513508  0.97909759  0.28237073    -0.12300
C3423       C  0.15604947  0.97063547  0.28678028     0.01000
C3424       C  0.18336333  0.00118660  0.29058346    -0.24500
H3425       H  0.14084017  0.14327856  0.27852396     0.09000
H3426       H  0.13143703  0.07826614  0.27816668     0.12600
H3427       H  0.22679823  0.17545354  0.29306830     0.11300
H3428       H  0.24374052  0.12867148  0.29694116     0.12500
H3429       H  0.23377147  0.06241412  0.29729337     0.11500
H3430       H  0.12327382  0.02121706  0.27839538     0.08600
H3431       H  0.11405466  0.95617787  0.27934489     0.11900
H3432       H  0.20022095  0.99531960  0.29396570     0.13700
C3433       C  0.15451703  0.65169229  0.29052326    -0.01800
C3434       C  0.18103335  0.64998416  0.29470217    -0.09800
C3435       C  0.18341396  0.61583436  0.29531834    -0.18600
C3436       C  0.15918296  0.58197490  0.29175187     0.03800
C3437       C  0.13246929  0.58394850  0.28749559     0.17900
C3438       C  0.13029252  0.61845114  0.28694091    -0.20100
C3439       C  0.10834320  0.55162537  0.28375222    -0.21300
C3440       C  0.11069491  0.51755887  0.28404097    -0.19900
C3441       C  0.13678103  0.51476917  0.28815141     0.19300
C3442       C  0.16095430  0.54652433  0.29215555     0.01500
C3443       C  0.18592653  0.54134560  0.29633209    -0.14600
C3444       C  0.18786825  0.50663948  0.29633237    -0.12300
C3445       C  0.16501294  0.47612576  0.29219092     0.01000
C3446       C  0.13905336  0.48034561  0.28820273    -0.24500
H3447       H  0.20049062  0.67539927  0.29748102     0.09000
H3448       H  0.20484828  0.61705313  0.29856765     0.12600
H3449       H  0.10963728  0.61938352  0.28370217     0.11300
H3450       H  0.08789408  0.55289282  0.28051188     0.12500
H3451       H  0.09205903  0.49323892  0.28100233     0.11500
H3452       H  0.20449093  0.56363753  0.29962260     0.08600
H3453       H  0.20794555  0.50408330  0.29948688     0.11900
H3454       H  0.12062170  0.45679478  0.28502690     0.13700
C3455       C  0.15739637  0.32488936  0.31727534    -0.01800
C3456       C  0.12563527  0.29277156  0.32022695    -0.09800
C3457       C  0.12697612  0.28554558  0.32654308    -0.18600
C3458       C  0.16041586  0.31021755  0.33016979     0.03800
C3459       C  0.19185797  0.34359574  0.32723091     0.17900
C3460       C  0.19012894  0.35053049  0.32087156    -0.20100
C3461       C  0.22510843  0.36979998  0.33064421    -0.21300
C3462       C  0.22765913  0.36396328  0.33693423    -0.19900
C3463       C  0.19728971  0.33142681  0.33996527     0.19300
C3464       C  0.16361328  0.30349201  0.33661585     0.01500
C3465       C  0.13464451  0.27035205  0.33989301    -0.14600
C3466       C  0.13746339  0.26700409  0.34631169    -0.12300
C3467       C  0.16933420  0.29630491  0.34966867     0.01000
C3468       C  0.19991969  0.32751500  0.34638493    -0.24500
H3469       H  0.09971555  0.27247762  0.31761921     0.09000
H3470       H  0.10140767  0.26037951  0.32845429     0.12600
H3471       H  0.21485301  0.37556351  0.31869449     0.11300
H3472       H  0.24918630  0.39529219  0.32844541     0.12500
H3473       H  0.25352181  0.38526153  0.33945931     0.11500
H3474       H  0.10904916  0.24698596  0.33764409     0.08600
H3475       H  0.11358858  0.24228883  0.34868368     0.11900
H3476       H  0.22514193  0.35016101  0.34887343     0.13700
C3477       C  0.23822352  0.28948851  0.26381495    -0.01800
C3478       C  0.27332564  0.31673375  0.26089375    -0.09800
C3479       C  0.28506874  0.30733660  0.25532991    -0.18600
C3480       C  0.26190708  0.27016017  0.25246657     0.03800
C3481       C  0.22648611  0.24258789  0.25546872     0.17900
C3482       C  0.21504595  0.25242581  0.26104009    -0.20100
C3483       C  0.20259599  0.20517803  0.25291068    -0.21300
C3484       C  0.21310590  0.19439434  0.24742207    -0.19900
C3485       C  0.24766548  0.22081171  0.24432242     0.19300
C3486       C  0.27251932  0.25917987  0.24676273     0.01500
C3487       C  0.30672361  0.28476599  0.24336266    -0.14600
C3488       C  0.31604102  0.27253457  0.23783947    -0.12300
C3489       C  0.29167888  0.23447550  0.23548809     0.01000
C3490       C  0.25739789  0.20891884  0.23877753    -0.24500
H3491       H  0.29197098  0.34551270  0.26291914     0.09000
H3492       H  0.31251179  0.32974458  0.25339876     0.12600
H3493       H  0.18790109  0.23082631  0.26323450     0.11300
H3494       H  0.17558113  0.18400981  0.25518332     0.12500
H3495       H  0.19397477  0.16514630  0.24557921     0.11500
H3496       H  0.32683471  0.31446726  0.24483988     0.08600
H3497       H  0.34252700  0.29312826  0.23539711     0.11900
H3498       H  0.23809967  0.17942217  0.23703779     0.13700
C3499       C  0.09916757  0.36576973  0.40319732    -0.01800
C3500       C  0.06092255  0.34151854  0.40545398    -0.09800
C3501       C  0.04758063  0.35181299  0.41073377    -0.18600
C3502       C  0.07221907  0.38688320  0.41402371     0.03800
C3503       C  0.11123385  0.41117509  0.41179488     0.17900
C3504       C  0.12424195  0.40058814  0.40642943    -0.20100
C3505       C  0.13695795  0.44604591  0.41491539    -0.21300
C3506       C  0.12470740  0.45753656  0.42016930    -0.19900
C3507       C  0.08638512  0.43447394  0.42245500     0.19300
C3508       C  0.05957684  0.39874406  0.41942960     0.01500
C3509       C  0.02132694  0.37649452  0.42196160    -0.14600
C3510       C  0.01034070  0.38897539  0.42728616    -0.12300
C3511       C  0.03688203  0.42405004  0.43030899     0.01000
C3512       C  0.07486157  0.44681307  0.42779459    -0.24500
H3513       H  0.04068127  0.31459248  0.40305611     0.09000
H3514       H  0.01768727  0.33171853  0.41209442     0.12600
H3515       H  0.15392455  0.41964658  0.40475757     0.11300
H3516       H  0.16678350  0.46465602  0.41327172     0.12500
H3517       H  0.14541211  0.48472661  0.42246488     0.11500
H3518       H  0.99918822  0.34910112  0.41996387     0.08600
H3519       H  0.98088204  0.37066892  0.42908008     0.11900
H3520       H  0.09588809  0.47405926  0.43004560     0.13700
C3521       C  0.00196977  0.48798262  0.51571366    -0.01800
C3522       C  0.02875732  0.52200287  0.51251799    -0.09800
C3523       C  0.02360470  0.52663326  0.50623362    -0.18600
C3524       C  0.99131114  0.49712151  0.50286693     0.03800
C3525       C  0.96472156  0.46211518  0.50606191     0.17900
C3526       C  0.97021647  0.45786024  0.51240243    -0.20100
C3527       C  0.93256121  0.43173568  0.50292456    -0.21300
C3528       C  0.92640316  0.43521626  0.49666173    -0.19900
C3529       C  0.95215196  0.46922116  0.49336725     0.19300
C3530       C  0.98470632  0.50087969  0.49644063     0.01500
C3531       C  0.00953923  0.53469083  0.49291738    -0.14600
C3532       C  0.00376637  0.53601853  0.48656197    -0.12300
C3533       C  0.97295902  0.50391975  0.48345606     0.01000
C3534       C  0.94637751  0.47113340  0.48696004    -0.24500
H3535       H  0.05339436  0.54585499  0.51492278     0.09000
H3536       H  0.04535497  0.55387044  0.50416320     0.12600
H3537       H  0.94914149  0.43126673  0.51478635     0.11300
H3538       H  0.91211337  0.40495129  0.50532469     0.12500
H3539       H  0.90150780  0.41093950  0.49436255     0.11500
H3540       H  0.03434097  0.56031696  0.49489646     0.08600
H3541       H  0.02473506  0.56188106  0.48402442     0.11900
H3542       H  0.92241294  0.44601136  0.48464888     0.13700
C3543       C  0.15510925  0.63174175  0.45519820    -0.01800
C3544       C  0.16512380  0.65582048  0.46046247    -0.09800
C3545       C  0.19716579  0.69375346  0.46044043    -0.18600
C3546       C  0.22045660  0.70946546  0.45509114     0.03800
C3547       C  0.21140414  0.68463164  0.44981765     0.17900
C3548       C  0.17908634  0.64599054  0.44992620    -0.20100
C3549       C  0.23407886  0.69889852  0.44443442    -0.21300
C3550       C  0.26526636  0.73747645  0.44415737    -0.19900
C3551       C  0.27468120  0.76261487  0.44927106     0.19300
C3552       C  0.25223928  0.74898423  0.45480062     0.01500
C3553       C  0.26247128  0.77555820  0.45981094    -0.14600
C3554       C  0.29442983  0.81348317  0.45943393    -0.12300
C3555       C  0.31734697  0.82646522  0.45406910     0.01000
C3556       C  0.30687266  0.80113520  0.44894423    -0.24500
H3557       H  0.14768156  0.64561280  0.46464795     0.09000
H3558       H  0.20243784  0.71002496  0.46468747     0.12600
H3559       H  0.17187497  0.62757170  0.44583807     0.11300
H3560       H  0.22747763  0.68018673  0.44039638     0.12500
H3561       H  0.28220883  0.74768255  0.43992117     0.11500
H3562       H  0.24674338  0.76804228  0.46413039     0.08600
H3563       H  0.30182022  0.83238849  0.46346189     0.11900
H3564       H  0.32417642  0.81113766  0.44473645     0.13700
C3565       C  0.83237420  0.31659540  0.45695701    -0.01800
C3566       C  0.80539625  0.31204883  0.46159424    -0.09800
C3567       C  0.76953275  0.27713120  0.46216228    -0.18600
C3568       C  0.75927195  0.24521810  0.45809331     0.03800
C3569       C  0.78699235  0.24958478  0.45347077     0.17900
C3570       C  0.82288625  0.28506313  0.45291656    -0.20100
C3571       C  0.77874639  0.21852853  0.44942079    -0.21300
C3572       C  0.74337020  0.18325039  0.44982652    -0.19900
C3573       C  0.71514518  0.17840057  0.45423064     0.19300
C3574       C  0.72252185  0.20925090  0.45842470     0.01500
C3575       C  0.69248544  0.20294576  0.46268250    -0.14600
C3576       C  0.65646840  0.16775951  0.46269289    -0.12300
C3577       C  0.64924238  0.13766292  0.45849946     0.01000
C3578       C  0.67912894  0.14306356  0.45435674    -0.24500
H3579       H  0.81182283  0.33575834  0.46480390     0.09000
H3580       H  0.75060124  0.27607337  0.46585435     0.12600
H3581       H  0.84356452  0.28798386  0.44934296     0.11300
H3582       H  0.79979532  0.22155267  0.44590911     0.12500
H3583       H  0.73781276  0.15977942  0.44661049     0.11500
H3584       H  0.69550730  0.22490690  0.46597776     0.08600
H3585       H  0.63390773  0.16452226  0.46591521     0.11900
H3586       H  0.67409536  0.12005850  0.45107452     0.13700
C3587       C  0.38289379  0.94356822  0.43067793    -0.01800
C3588       C  0.36594611  0.90458208  0.42856370    -0.09800
C3589       C  0.34213000  0.89196741  0.42331312    -0.18600
C3590       C  0.33427466  0.91800759  0.41991702     0.03800
C3591       C  0.35221575  0.95780188  0.42194350     0.17900
C3592       C  0.37581195  0.97007587  0.42732163    -0.20100
C3593       C  0.34677338  0.98512319  0.41855062    -0.21300
C3594       C  0.32391583  0.97376167  0.41318896    -0.19900
C3595       C  0.30506052  0.93456342  0.41116913     0.19300
C3596       C  0.30966468  0.90603399  0.41454535     0.01500
C3597       C  0.28925183  0.86665906  0.41241684    -0.14600
C3598       C  0.26635695  0.85631745  0.40706622    -0.12300
C3599       C  0.26253241  0.88456836  0.40365870     0.01000
C3600       C  0.28167706  0.92367225  0.40578040    -0.24500
H3601       H  0.37088067  0.88330460  0.43099690     0.09000
H3602       H  0.33071227  0.86166888  0.42200703     0.12600
H3603       H  0.38885704  0.00036748  0.42886223     0.11300
H3604       H  0.36058913  0.01559499  0.42002271     0.12500
H3605       H  0.32067711  0.99573843  0.41063401     0.11500
H3606       H  0.29015086  0.84299247  0.41478676     0.08600
H3607       H  0.25155811  0.82583449  0.40558367     0.11900
H3608       H  0.27903722  0.94584575  0.40317266     0.13700
C3609       C  0.49406853  0.98165549  0.51551483    -0.01800
C3610       C  0.49635051  0.95226344  0.51216121    -0.09800
C3611       C  0.50596131  0.95711788  0.50586318    -0.18600
C3612       C  0.51370793  0.99179791  0.50267581     0.03800
C3613       C  0.50996448  0.02090056  0.50603202     0.17900
C3614       C  0.50042178  0.01570752  0.51236251    -0.20100
C3615       C  0.51586970  0.05514259  0.50305738    -0.21300
C3616       C  0.52449571  0.06073208  0.49676818    -0.19900
C3617       C  0.52818650  0.03258208  0.49331022     0.19300
C3618       C  0.52406023  0.99828239  0.49625480     0.01500
C3619       C  0.53000018  0.97179216  0.49261457    -0.14600
C3620       C  0.53590353  0.97715941  0.48623314    -0.12300
C3621       C  0.53612133  0.00904288  0.48323087     0.01000
C3622       C  0.53427719  0.03772549  0.48686985    -0.24500
H3623       H  0.49150054  0.92561841  0.51443781     0.09000
H3624       H  0.50699491  0.93312951  0.50361359     0.12600
H3625       H  0.49870291  0.03878358  0.51486082     0.11300
H3626       H  0.51313705  0.07750636  0.50559282     0.12500
H3627       H  0.52790001  0.08710205  0.49457873     0.11500
H3628       H  0.52933195  0.94613017  0.49453831     0.08600
H3629       H  0.53818995  0.95488585  0.48359732     0.11900
H3630       H  0.53499001  0.06284922  0.48465165     0.13700
C3631       C  0.16314046  0.65853797  0.54232609    -0.01800
C3632       C  0.18836100  0.66296990  0.53739227    -0.09800
C3633       C  0.22437304  0.69770538  0.53664734    -0.18600
C3634       C  0.23632714  0.72944851  0.54081849     0.03800
C3635       C  0.21003498  0.72518703  0.54568825     0.17900
C3636       C  0.17437407  0.68987099  0.54645609    -0.20100
C3637       C  0.21930520  0.75627136  0.54977139    -0.21300
C3638       C  0.25455476  0.79135706  0.54921830    -0.19900
C3639       C  0.28186622  0.79579600  0.54467987     0.19300
C3640       C  0.27339442  0.76511195  0.54039223     0.01500
C3641       C  0.30289233  0.77119648  0.53602327    -0.14600
C3642       C  0.33959020  0.80594963  0.53605579    -0.12300
C3643       C  0.34770475  0.83577683  0.54037064     0.01000
C3644       C  0.31819008  0.83055696  0.54456557    -0.24500
H3645       H  0.18036171  0.63937535  0.53408527     0.09000
H3646       H  0.24204304  0.69896629  0.53274094     0.12600
H3647       H  0.15496447  0.68709417  0.55023349     0.11300
H3648       H  0.19916801  0.75340860  0.55343243     0.12500
H3649       H  0.26094774  0.81485997  0.55247671     0.11500
H3650       H  0.29889150  0.74921739  0.53265131     0.08600
H3651       H  0.36186306  0.80910335  0.53277901     0.11900
H3652       H  0.32374570  0.85332553  0.54792674     0.13700
C3653       C  0.84798475  0.34054418  0.54652328    -0.01800
C3654       C  0.84978650  0.30994832  0.54346873    -0.09800
C3655       C  0.81833243  0.27156730  0.54364841    -0.18600
C3656       C  0.78342142  0.26235035  0.54685126     0.03800
C3657       C  0.78190937  0.29330691  0.55005315     0.17900
C3658       C  0.81424640  0.33190203  0.54992387    -0.20100
C3659       C  0.74778724  0.28570227  0.55323703    -0.21300
C3660       C  0.71483235  0.24815982  0.55321494    -0.19900
C3661       C  0.71525314  0.21723365  0.55003627     0.19300
C3662       C  0.74971231  0.22375163  0.54686898     0.01500
C3663       C  0.74866377  0.19147731  0.54375985    -0.14600
C3664       C  0.71451566  0.15471554  0.54363214    -0.12300
C3665       C  0.68028964  0.14856189  0.54663128     0.01000
C3666       C  0.68112223  0.17991880  0.54991280    -0.24500
H3667       H  0.87572536  0.31572145  0.54086469     0.09000
H3668       H  0.82217269  0.25001546  0.54113673     0.12600
H3669       H  0.81257779  0.35544431  0.55227912     0.11300
H3670       H  0.74637467  0.30908066  0.55568905     0.12500
H3671       H  0.68867637  0.24336800  0.55565398     0.11500
H3672       H  0.77356368  0.19361605  0.54131958     0.08600
H3673       H  0.71491795  0.13102597  0.54111500     0.11900
H3674       H  0.65483569  0.17563731  0.55225328     0.13700
C3675       C  0.66195094  0.49316127  0.45584442    -0.01800
C3676       C  0.66454381  0.46774821  0.46012863    -0.09800
C3677       C  0.69920276  0.46660500  0.46082723    -0.18600
C3678       C  0.73282981  0.49123850  0.45727273     0.03800
C3679       C  0.72993654  0.51667385  0.45286820     0.17900
C3680       C  0.69464409  0.51716632  0.45215797    -0.20100
C3681       C  0.76238085  0.54173974  0.44923568    -0.21300
C3682       C  0.79764405  0.54188918  0.44984127    -0.19900
C3683       C  0.80124354  0.51691515  0.45408121     0.19300
C3684       C  0.76911513  0.49142129  0.45790368     0.01500
C3685       C  0.77475307  0.46711233  0.46214474    -0.14600
C3686       C  0.81034038  0.46708276  0.46238310    -0.26700
C3687       C  0.84139709  0.49135531  0.45844076     0.01000
C3688       C  0.83676330  0.51683580  0.45441435    -0.24500
H3689       H  0.63955964  0.44848966  0.46298568     0.09000
H3690       H  0.69868504  0.44622107  0.46421183     0.12600
H3691       H  0.69294721  0.53690190  0.44881924     0.11300
H3692       H  0.76045876  0.56131186  0.44589425     0.12500
H3693       H  0.82221394  0.56147492  0.44693304     0.11500
H3694       H  0.75210601  0.44732680  0.46527037     0.08600
H3695       H  0.81310196  0.44718743  0.46554590     0.11900
H3696       H  0.86062649  0.53614468  0.45136795     0.13700
C3697       C  0.35231758  0.51144962  0.45532898    -0.01800
C3698       C  0.34209395  0.52835721  0.45048745    -0.09800
C3699       C  0.30463930  0.52433088  0.45021663    -0.18600
C3700       C  0.27589690  0.50277333  0.45477842     0.03800
C3701       C  0.28689420  0.48684079  0.45978470     0.17900
C3702       C  0.32467544  0.49150697  0.46003391    -0.20100
C3703       C  0.25989011  0.46553605  0.46446211    -0.21300
C3704       C  0.22174183  0.45899708  0.46422550    -0.19900
C3705       C  0.20967098  0.47361777  0.45930821     0.19300
C3706       C  0.23656519  0.49593154  0.45452685     0.01500
C3707       C  0.22271511  0.50996086  0.44967541    -0.14600
C3708       C  0.18398268  0.50230865  0.44959982    -0.12300
C3709       C  0.15763434  0.48044145  0.45433913     0.01000
C3710       C  0.17075808  0.46605016  0.45916571    -0.24500
H3711       H  0.36289579  0.54426728  0.44682787     0.09000
H3712       H  0.29895883  0.53794842  0.44632848     0.12600
H3713       H  0.33207459  0.47843023  0.46384850     0.11300
H3714       H  0.26821333  0.45345640  0.46830354     0.12500
H3715       H  0.20144875  0.44213267  0.46789596     0.11500
H3716       H  0.24104802  0.52699692  0.44587222     0.08600
H3717       H  0.17481987  0.51399620  0.44581389     0.11900
H3718       H  0.15082097  0.44929605  0.46288240     0.13700
C3719       C  0.48862410  0.15155370  0.45683376    -0.01800
C3720       C  0.52006975  0.18330701  0.45987346    -0.09800
C3721       C  0.52089914  0.21908198  0.46063181    -0.18600
C3722       C  0.48985750  0.22426993  0.45841895     0.03800
C3723       C  0.45772992  0.19177350  0.45540502     0.17900
C3724       C  0.45765386  0.15613738  0.45456952    -0.20100
C3725       C  0.42579210  0.19498755  0.45325702    -0.21300
C3726       C  0.42543301  0.23008182  0.45389998    -0.19900
C3727       C  0.45723922  0.26305694  0.45663449     0.19300
C3728       C  0.48973587  0.26058289  0.45900675     0.01500
C3729       C  0.52108563  0.29489581  0.46171244    -0.14600
C3730       C  0.52098538  0.33050523  0.46178084    -0.12300
C3731       C  0.48967169  0.33319724  0.45919429     0.01000
C3732       C  0.45735755  0.29894735  0.45679493    -0.24500
H3733       H  0.54439467  0.18055172  0.46165717     0.09000
H3734       H  0.54618106  0.24201546  0.46299956     0.12600
H3735       H  0.43295886  0.13158400  0.45227580     0.11300
H3736       H  0.40101672  0.17025240  0.45101631     0.12500
H3737       H  0.40045461  0.23170085  0.45211608     0.11500
H3738       H  0.54666763  0.29551990  0.46365991     0.08600
H3739       H  0.54634710  0.35643571  0.46365035     0.11900
H3740       H  0.43270245  0.30050273  0.45484131     0.13700
C3741       C  0.50686693  0.66319665  0.45281681    -0.01800
C3742       C  0.48789375  0.66982275  0.44784742    -0.09800
C3743       C  0.48048381  0.70110494  0.44798479    -0.18600
C3744       C  0.49175732  0.72675329  0.45314373     0.03800
C3745       C  0.51143324  0.72004602  0.45812147     0.17900
C3746       C  0.51889420  0.68876037  0.45789908    -0.20100
C3747       C  0.52334367  0.74436740  0.46334433    -0.21300
C3748       C  0.51637139  0.77557796  0.46373835    -0.19900
C3749       C  0.49728639  0.78316009  0.45892131     0.19300
C3750       C  0.48446371  0.75886745  0.45355799     0.01500
C3751       C  0.46526028  0.76809210  0.44885221    -0.14600
C3752       C  0.46008386  0.80071473  0.44939841    -0.12300
C3753       C  0.47354213  0.82493648  0.45465621     0.01000
C3754       C  0.49156757  0.81546159  0.45942823    -0.24500
H3755       H  0.47826657  0.65046402  0.44385538     0.09000
H3756       H  0.46564553  0.70421162  0.44401111     0.12600
H3757       H  0.53324362  0.68373624  0.46180016     0.11300
H3758       H  0.53826753  0.73927787  0.46715100     0.12500
H3759       H  0.52618334  0.79406980  0.46783306     0.11500
H3760       H  0.45435387  0.75101723  0.44466507     0.08600
H3761       H  0.44605339  0.80731080  0.44563391     0.11900
H3762       H  0.50205420  0.83379297  0.46353747     0.13700
C3763       C  0.55387281  0.58906981  0.42945619    -0.01800
C3764       C  0.52804287  0.59953860  0.42670445    -0.09800
C3765       C  0.53811594  0.62157627  0.42126851    -0.18600
C3766       C  0.57484754  0.63441933  0.41837180     0.03800
C3767       C  0.60090584  0.62346199  0.42112213     0.17900
C3768       C  0.59017231  0.60078609  0.42657785    -0.20100
C3769       C  0.63777967  0.63574336  0.41846132    -0.21300
C3770       C  0.64949457  0.65893673  0.41315044    -0.19900
C3771       C  0.62457004  0.67029367  0.41033067     0.19300
C3772       C  0.58679851  0.65805150  0.41288992     0.01500
C3773       C  0.56272531  0.67019892  0.40986350    -0.14600
C3774       C  0.57556732  0.69346256  0.40455217    -0.12300
C3775       C  0.61285790  0.70567455  0.40201772     0.01000
C3776       C  0.63722220  0.69385968  0.40496047    -0.24500
H3777       H  0.49974554  0.59087547  0.42878157     0.09000
H3778       H  0.51655830  0.62838857  0.41949985     0.12600
H3779       H  0.61055149  0.59303628  0.42865233     0.11300
H3780       H  0.65786030  0.62758989  0.42052910     0.12500
H3781       H  0.67832786  0.66810609  0.41123693     0.11500
H3782       H  0.53370178  0.66222642  0.41146662     0.08600
H3783       H  0.55587348  0.70186081  0.40241735     0.11900
H3784       H  0.66609512  0.70291203  0.40307036     0.13700
C3785       C  0.32786768  0.47944957  0.54234971    -0.01800
C3786       C  0.32419985  0.50262982  0.53773541    -0.09800
C3787       C  0.28953632  0.50413092  0.53707303    -0.18600
C3788       C  0.25699785  0.48218838  0.54100574     0.03800
C3789       C  0.26048658  0.45786125  0.54555983     0.17900
C3790       C  0.29570404  0.45704922  0.54623014    -0.20100
C3791       C  0.22876168  0.43436778  0.54943016    -0.21300
C3792       C  0.19372347  0.43480639  0.54894146    -0.19900
C3793       C  0.18971123  0.45925644  0.54464176     0.19300
C3794       C  0.22118653  0.48345798  0.54061226     0.01500
C3795       C  0.21552585  0.50829193  0.53647803    -0.14600
C3796       C  0.18026982  0.50933550  0.53643382    -0.12300
C3797       C  0.14947181  0.48556338  0.54046977     0.01000
C3798       C  0.15447168  0.46014191  0.54447415    -0.24500
H3799       H  0.34841662  0.52007151  0.53462799     0.09000
H3800       H  0.28902087  0.52255314  0.53341907     0.12600
H3801       H  0.29786531  0.43851828  0.54974918     0.11300
H3802       H  0.23106160  0.41551305  0.55287014     0.12500
H3803       H  0.16974526  0.41630476  0.55202720     0.11500
H3804       H  0.23813456  0.52791798  0.53332795     0.08600
H3805       H  0.17752406  0.52950345  0.53333139     0.11900
H3806       H  0.13108215  0.44142650  0.54763586     0.13700
C3807       C  0.84000738  0.51010234  0.54739701    -0.01800
C3808       C  0.83178942  0.53201332  0.54315592    -0.09800
C3809       C  0.79484810  0.52852620  0.54291612    -0.18600
C3810       C  0.76441099  0.50260334  0.54690820     0.03800
C3811       C  0.77339278  0.48235621  0.55149409     0.17900
C3812       C  0.81091607  0.48602637  0.55167882    -0.20100
C3813       C  0.74465248  0.45817400  0.55578288    -0.21300
C3814       C  0.70700337  0.45336943  0.55555547    -0.19900
C3815       C  0.69684483  0.47160264  0.55091180     0.19300
C3816       C  0.72537770  0.49601817  0.54647252     0.01500
C3817       C  0.71337171  0.51184803  0.54164475    -0.14600
C3818       C  0.67498798  0.50453271  0.54130625    -0.12300
C3819       C  0.64691626  0.48131033  0.54576090     0.01000
C3820       C  0.65814374  0.46499947  0.55058588    -0.24500
H3821       H  0.85377226  0.55148896  0.53987273     0.09000
H3822       H  0.79119376  0.54664368  0.53954326     0.12600
H3823       H  0.81711017  0.46946783  0.55506817     0.11300
H3824       H  0.75132140  0.44286994  0.55933278     0.12500
H3825       H  0.68543945  0.43455943  0.55894687     0.11500
H3826       H  0.73260037  0.52926662  0.53794907     0.08600
H3827       H  0.66740422  0.51733331  0.53748063     0.11900
H3828       H  0.63667768  0.44665774  0.55402609     0.13700
C3829       C  0.50806605  0.82423287  0.54265016    -0.01800
C3830       C  0.53240191  0.81660460  0.54644544    -0.09800
C3831       C  0.53321560  0.78166131  0.54586571    -0.18600
C3832       C  0.50938005  0.75274892  0.54146215     0.03800
C3833       C  0.48309372  0.75942267  0.53784211     0.17900
C3834       C  0.48310337  0.79521269  0.53838665    -0.20100
C3835       C  0.45682256  0.73016615  0.53376142    -0.21300
C3836       C  0.45559586  0.69407106  0.53331589    -0.19900
C3837       C  0.48161938  0.68691369  0.53676730     0.19300
C3838       C  0.50991521  0.71693673  0.54068657     0.01500
C3839       C  0.53778233  0.70999344  0.54367203    -0.14600
C3840       C  0.53531085  0.67352394  0.54329971    -0.12300
C3841       C  0.50512222  0.64245940  0.53993421     0.01000
C3842       C  0.47918378  0.64979000  0.53645620    -0.24500
H3843       H  0.55148114  0.83804861  0.54984107     0.09000
H3844       H  0.55229320  0.77784829  0.54902893     0.12600
H3845       H  0.46336673  0.80029266  0.53552488     0.11300
H3846       H  0.43650157  0.73490374  0.53099749     0.12500
H3847       H  0.43422328  0.67166651  0.53024885     0.11500
H3848       H  0.56194165  0.73219571  0.54634030     0.08600
H3849       H  0.55685293  0.66943933  0.54582961     0.11900
H3850       H  0.45628016  0.62634052  0.53371278     0.13700
C3851       C  0.48004412  0.30796504  0.54664695    -0.01800
C3852       C  0.50292722  0.30413292  0.55129356    -0.09800
C3853       C  0.50796051  0.27136851  0.55149128    -0.18600
C3854       C  0.49021700  0.24115850  0.54701140     0.03800
C3855       C  0.46561596  0.24433724  0.54247825     0.17900
C3856       C  0.46082635  0.27743423  0.54233293    -0.20100
C3857       C  0.44633787  0.21474797  0.53804404    -0.21300
C3858       C  0.45116358  0.18207965  0.53797320    -0.19900
C3859       C  0.47601268  0.17861330  0.54225406     0.19300
C3860       C  0.49614187  0.20809424  0.54682316     0.01500
C3861       C  0.52188408  0.20349894  0.55089435    -0.14600
C3862       C  0.52726647  0.17095043  0.55042604    -0.12300
C3863       C  0.50708283  0.14192856  0.54592181     0.01000
C3864       C  0.48126997  0.14596254  0.54189693    -0.24500
H3865       H  0.51768164  0.32692412  0.55475453     0.09000
H3866       H  0.52606266  0.27067057  0.55518714     0.12600
H3867       H  0.44276211  0.27976370  0.53874329     0.11300
H3868       H  0.42745439  0.21692770  0.53459183     0.12500
H3869       H  0.43583412  0.15965082  0.53447398     0.11500
H3870       H  0.53876675  0.22482908  0.55441703     0.08600
H3871       H  0.54757872  0.16873145  0.55357323     0.11900
H3872       H  0.46536587  0.12377231  0.53838702     0.13700
C3873       C  0.49900470  0.49461842  0.51549363    -0.01800
C3874       C  0.52888123  0.49175701  0.51239211    -0.09800
C3875       C  0.52587702  0.48282161  0.50610074    -0.18600
C3876       C  0.49266386  0.47637367  0.50262879     0.03800
C3877       C  0.46300256  0.48069265  0.50570618     0.17900
C3878       C  0.46629852  0.48954406  0.51207767    -0.20100
C3879       C  0.43023674  0.47609205  0.50240236    -0.21300
C3880       C  0.42670975  0.46808461  0.49608080    -0.19900
C3881       C  0.45554589  0.46384292  0.49292596     0.19300
C3882       C  0.48838602  0.46684222  0.49618310     0.01500
C3883       C  0.51584902  0.46079141  0.49281846    -0.14600
C3884       C  0.51275837  0.45559508  0.48640686    -0.12300
C3885       C  0.48191649  0.45556567  0.48313826     0.01000
C3886       C  0.45249756  0.45806495  0.48648421    -0.24500
H3887       H  0.55465583  0.49571326  0.51486061     0.09000
H3888       H  0.55022314  0.48135678  0.50409381     0.12600
H3889       H  0.44297077  0.49174398  0.51439208     0.11300
H3890       H  0.40747903  0.47932405  0.50470306     0.12500
H3891       H  0.40143954  0.46559102  0.49362948     0.11500
H3892       H  0.54056887  0.46074788  0.49498005     0.08600
H3893       H  0.53565939  0.45328763  0.48397958     0.11900
H3894       H  0.42806186  0.45750437  0.48404282     0.13700
C3895       C  0.09529759  0.71061398  0.90240707    -0.01800
C3896       C  0.12194074  0.70125339  0.90517579    -0.09800
C3897       C  0.11243977  0.67916066  0.91060432    -0.18600
C3898       C  0.07559282  0.66532102  0.91351123     0.03800
C3899       C  0.04832657  0.67436047  0.91067903     0.17900
C3900       C  0.05845028  0.69708013  0.90522073    -0.20100
C3901       C  0.01099427  0.66034234  0.91328626    -0.21300
C3902       C  0.00013928  0.63753011  0.91864083    -0.19900
C3903       C  0.02653613  0.62862922  0.92159546     0.19300
C3904       C  0.06476843  0.64265277  0.91909661     0.01500
C3905       C  0.09062431  0.63366259  0.92233399    -0.14600
C3906       C  0.07898051  0.61155459  0.92777725    -0.12300
C3907       C  0.04116979  0.59741538  0.93023140     0.01000
C3908       C  0.01505072  0.60609933  0.92707596    -0.24500
H3909       H  0.15054074  0.71095844  0.90313128     0.09000
H3910       H  0.13454188  0.67309806  0.91236392     0.12600
H3911       H  0.03735977  0.70377058  0.90312701     0.11300
H3912       H  0.98992514  0.66688950  0.91114930     0.12500
H3913       H  0.97094750  0.62702668  0.92051387     0.11500
H3914       H  0.12030555  0.64366114  0.92083166     0.08600
H3915       H  0.10006363  0.60581522  0.93010131     0.11900
H3916       H  0.98577723  0.59566041  0.92891243     0.13700
C3917       C  0.16153698  0.83167948  0.84928645    -0.01800
C3918       C  0.19530524  0.83708247  0.84618513    -0.09800
C3919       C  0.19427989  0.82852542  0.83990251    -0.18600
C3920       C  0.15921385  0.81418875  0.83643858     0.03800
C3921       C  0.12536845  0.81029385  0.83950250     0.17900
C3922       C  0.12670238  0.81875171  0.84587263    -0.20100
C3923       C  0.09044993  0.79800672  0.83618074    -0.21300
C3924       C  0.08882918  0.79075613  0.82984390    -0.19900
C3925       C  0.12171887  0.79442904  0.82670610     0.19300
C3926       C  0.15690191  0.80471533  0.83000501     0.01500
C3927       C  0.18836208  0.80543077  0.82670173    -0.14600
C3928       C  0.18623856  0.79971892  0.82030172    -0.12300
C3929       C  0.15275226  0.79297608  0.81697164     0.01000
C3930       C  0.12004775  0.78900793  0.82025249    -0.24500
H3931       H  0.22280467  0.84739502  0.84865097     0.09000
H3932       H  0.22158878  0.83380580  0.83788179     0.12600
H3933       H  0.10035399  0.81447865  0.84818972     0.11300
H3934       H  0.06445490  0.79481674  0.83847180     0.12500
H3935       H  0.06170603  0.78241218  0.82737286     0.11500
H3936       H  0.21523571  0.81083866  0.82891742     0.08600
H3937       H  0.21179088  0.80248569  0.81792475     0.11900
H3938       H  0.09366702  0.78314168  0.81775517     0.13700
C3939       C  0.51425584  0.82691396  0.79154629    -0.01800
C3940       C  0.48891556  0.81248339  0.79664974    -0.09800
C3941       C  0.45440028  0.81471532  0.79682990    -0.18600
C3942       C  0.44397723  0.83123709  0.79185198     0.03800
C3943       C  0.46998299  0.84597159  0.78671993     0.17900
C3944       C  0.50443154  0.84371991  0.78662047    -0.20100
C3945       C  0.46143954  0.86263609  0.78165551    -0.21300
C3946       C  0.42721554  0.86467311  0.78152452    -0.19900
C3947       C  0.40061729  0.84993899  0.78644121     0.19300
C3948       C  0.40857993  0.83322187  0.79170515     0.01500
C3949       C  0.38043279  0.81871868  0.79651668    -0.14600
C3950       C  0.34554711  0.81991128  0.79602960    -0.12300
C3951       C  0.33765462  0.83587266  0.79077047     0.01000
C3952       C  0.36570075  0.85129361  0.78604354    -0.24500
H3953       H  0.49573757  0.79939814  0.80052295     0.09000
H3954       H  0.43641153  0.80306443  0.80090511     0.12600
H3955       H  0.52349385  0.85484075  0.78260931     0.11300
H3956       H  0.48127243  0.87395436  0.77773789     0.12500
H3957       H  0.42129890  0.87748357  0.77751057     0.11500
H3958       H  0.38427603  0.80586186  0.80067660     0.08600
H3959       H  0.32453445  0.80790783  0.79978516     0.11900
H3960       H  0.36012756  0.86386344  0.78196344     0.13700
C3961       C  0.82699380  0.80684795  0.78695964    -0.01800
C3962       C  0.85168088  0.82452846  0.78185106    -0.09800
C3963       C  0.89009225  0.83123662  0.78180309    -0.18600
C3964       C  0.90531527  0.82068946  0.78691758     0.03800
C3965       C  0.87950082  0.80091509  0.79194894     0.17900
C3966       C  0.84082491  0.79409956  0.79191664    -0.20100
C3967       C  0.89265230  0.78877500  0.79705335    -0.21300
C3968       C  0.93116196  0.79638152  0.79732340    -0.19900
C3969       C  0.95752756  0.81659879  0.79251911     0.19300
C3970       C  0.94517415  0.82918871  0.78724628     0.01500
C3971       C  0.97341845  0.85008665  0.78258617    -0.14600
C3972       C  0.01192994  0.85707189  0.78307282    -0.12300
C3973       C  0.02359887  0.84369262  0.78821754     0.01000
C3974       C  0.99621890  0.82399677  0.79296005    -0.24500
H3975       H  0.84154584  0.83395802  0.77789191     0.09000
H3976       H  0.90721966  0.84511522  0.77772341     0.12600
H3977       H  0.82194399  0.78004888  0.79587209     0.11300
H3978       H  0.87308131  0.77349152  0.80088381     0.12500
H3979       H  0.94047738  0.78662175  0.80134611     0.11500
H3980       H  0.96667782  0.86131430  0.77849885     0.08600
H3981       H  0.03242189  0.87246569  0.77935230     0.11900
H3982       H  0.00470352  0.81355481  0.79699803     0.13700
C3983       C  0.56847016  0.95430908  0.93010560    -0.01800
C3984       C  0.60550998  0.98003982  0.92754959    -0.09800
C3985       C  0.61768069  0.97076125  0.92202373    -0.18600
C3986       C  0.59319557  0.93503851  0.91886070     0.03800
C3987       C  0.55543989  0.90938018  0.92141503     0.17900
C3988       C  0.54348657  0.91921356  0.92693983    -0.20100
C3989       C  0.52986341  0.87370498  0.91848721    -0.21300
C3990       C  0.54102575  0.86266622  0.91309030    -0.19900
C3991       C  0.57801790  0.88706164  0.91046442     0.19300
C3992       C  0.60474317  0.92361408  0.91329594     0.01500
C3993       C  0.64186912  0.94680013  0.91045185    -0.14600
C3994       C  0.65179222  0.93428751  0.90502029    -0.12300
C3995       C  0.62517090  0.89833392  0.90221658     0.01000
C3996       C  0.58833748  0.87491048  0.90500887    -0.24500
H3997       H  0.62543579  0.00749717  0.92984652     0.09000
H3998       H  0.64651230  0.99205071  0.92037020     0.12600
H3999       H  0.51459285  0.89912954  0.92880151     0.11300
H4000       H  0.50104458  0.85402935  0.92040861     0.12500
H4001       H  0.52056036  0.83473173  0.91096062     0.11500
H4002       H  0.66392759  0.97472667  0.91231445     0.08600
H4003       H  0.68051117  0.95303846  0.90300287     0.11900
H4004       H  0.56738706  0.84695938  0.90293208     0.13700
C4005       C  0.50167680  0.84105860  0.87922897    -0.01800
C4006       C  0.47565050  0.81975446  0.88403380    -0.09800
C4007       C  0.43739893  0.81346810  0.88413130    -0.18600
C4008       C  0.42358096  0.82816510  0.87937519     0.03800
C4009       C  0.45032736  0.85058380  0.87458315     0.17900
C4010       C  0.48889723  0.85696331  0.87456820    -0.20100
C4011       C  0.43827712  0.86605125  0.86977814    -0.21300
C4012       C  0.40019388  0.85977890  0.86962302    -0.19900
C4013       C  0.37320485  0.83785187  0.87426467     0.19300
C4014       C  0.38427009  0.82144000  0.87919187     0.01500
C4015       C  0.35541363  0.79894639  0.88368917    -0.14600
C4016       C  0.31753371  0.79384433  0.88337028    -0.12300
C4017       C  0.30708969  0.81080650  0.87856281     0.01000
C4018       C  0.33515723  0.83245367  0.87399992    -0.24500
H4019       H  0.48465283  0.80731740  0.88773036     0.09000
H4020       H  0.41932376  0.79673161  0.88797596     0.12600
H4021       H  0.50866174  0.87358814  0.87082674     0.11300
H4022       H  0.45843688  0.88308636  0.86610515     0.12500
H4023       H  0.39178652  0.87220359  0.86584005     0.11500
H4024       H  0.36115435  0.78495617  0.88751781     0.08600
H4025       H  0.29645076  0.77671809  0.88693081     0.11900
H4026       H  0.32756705  0.84552762  0.87020823     0.13700
C4027       C  0.81221949  0.81793934  0.87432894    -0.01800
C4028       C  0.81172634  0.78644104  0.87746921    -0.09800
C4029       C  0.84497815  0.78259073  0.87772441    -0.18600
C4030       C  0.88030240  0.81040362  0.87484476     0.03800
C4031       C  0.88011964  0.84102731  0.87133771     0.17900
C4032       C  0.84614798  0.84450158  0.87109631    -0.20100
C4033       C  0.91411657  0.86847344  0.86822361    -0.21300
C4034       C  0.94851200  0.86657975  0.86860799    -0.19900
C4035       C  0.94987346  0.83753763  0.87218815     0.19300
C4036       C  0.91582079  0.80908002  0.87537831     0.01500
C4037       C  0.91903845  0.78105537  0.87907958    -0.14600
C4038       C  0.95450159  0.78122300  0.87956572    -0.12300
C4039       C  0.98777280  0.80894356  0.87635171     0.01000
C4040       C  0.98525453  0.83698823  0.87265123    -0.24500
H4041       H  0.78554308  0.76486264  0.87987768     0.09000
H4042       H  0.84202822  0.75766714  0.88026733     0.12600
H4043       H  0.84667363  0.86877329  0.86861473     0.11300
H4044       H  0.91418523  0.89171771  0.86550651     0.12500
H4045       H  0.97440483  0.88834320  0.86615974     0.11500
H4046       H  0.89491241  0.75886626  0.88172898     0.08600
H4047       H  0.95575229  0.75921508  0.88242940     0.11900
H4048       H  0.01109330  0.85888022  0.87019953     0.13700
C4049       C  0.67322243  0.82338192  0.84913823    -0.01800
C4050       C  0.64255453  0.79154016  0.84596598    -0.09800
C4051       C  0.63635816  0.79374711  0.83964690    -0.18600
C4052       C  0.66070227  0.82816231  0.83621751     0.03800
C4053       C  0.69294981  0.85977864  0.83935032     0.17900
C4054       C  0.69878727  0.85725276  0.84574464    -0.20100
C4055       C  0.71899369  0.89381847  0.83608473    -0.21300
C4056       C  0.71396588  0.89693926  0.82976444    -0.19900
C4057       C  0.68220841  0.86650244  0.82656735     0.19300
C4058       C  0.65457027  0.83207108  0.82977900     0.01500
C4059       C  0.62202187  0.80304894  0.82639820    -0.14600
C4060       C  0.61861601  0.80674220  0.82002588    -0.12300
C4061       C  0.64737839  0.83941745  0.81677570     0.01000
C4062       C  0.67848767  0.86982953  0.82013947    -0.24500
H4063       H  0.62253047  0.76478492  0.84840428     0.09000
H4064       H  0.61224064  0.76791263  0.83757898     0.12600
H4065       H  0.72276546  0.88212134  0.84810022     0.11300
H4066       H  0.74371659  0.91804920  0.83842159     0.12500
H4067       H  0.73509029  0.92338867  0.82735897     0.11500
H4068       H  0.59889948  0.77684040  0.82852972     0.08600
H4069       H  0.59416478  0.78284017  0.81759574     0.11900
H4070       H  0.70083985  0.89551957  0.81771765     0.13700
C4071       C  0.15270590  0.16727046  0.78767318    -0.01800
C4072       C  0.13186620  0.13801812  0.78322649    -0.09800
C4073       C  0.13701908  0.10530120  0.78272390    -0.18600
C4074       C  0.16337211  0.10085581  0.78667814     0.03800
C4075       C  0.18441802  0.13072336  0.79115485     0.17900
C4076       C  0.17909993  0.16334607  0.79158264    -0.20100
C4077       C  0.21050035  0.12784119  0.79524741    -0.21300
C4078       C  0.21581642  0.09548694  0.79506927    -0.19900
C4079       C  0.19554549  0.06544497  0.79074341     0.19300
C4080       C  0.16934653  0.06779498  0.78643086     0.01500
C4081       C  0.15015286  0.03680696  0.78210898    -0.14600
C4082       C  0.15597158  0.00450452  0.78218492    -0.12300
C4083       C  0.18112340  0.00190697  0.78654666     0.01000
C4084       C  0.20111829  0.03282024  0.79076690    -0.24500
H4085       H  0.11134430  0.14028494  0.78013427     0.09000
H4086       H  0.11976217  0.08391019  0.77923084     0.12600
H4087       H  0.19578318  0.18585653  0.79501093     0.11300
H4088       H  0.22661766  0.15060916  0.79866484     0.12500
H4089       H  0.23586843  0.09390622  0.79835654     0.11500
H4090       H  0.13028558  0.03651835  0.77863561     0.08600
H4091       H  0.14013651  0.98115702  0.77884618     0.11900
H4092       H  0.22070986  0.03131912  0.79416019     0.13700
C4093       C  0.16040200  0.66995645  0.79256886    -0.01800
C4094       C  0.18435377  0.66307679  0.79658131    -0.09800
C4095       C  0.18221766  0.62639023  0.79668896    -0.18600
C4096       C  0.15599426  0.59534565  0.79274191     0.03800
C4097       C  0.13099742  0.60222473  0.78882683     0.17900
C4098       C  0.13331208  0.63898039  0.78879441    -0.20100
C4099       C  0.10420128  0.57263922  0.78486614    -0.21300
C4100       C  0.10224576  0.53637428  0.78459054    -0.19900
C4101       C  0.12710460  0.52885875  0.78825841     0.19300
C4102       C  0.15401116  0.55800805  0.79244886     0.01500
C4103       C  0.17815212  0.54867268  0.79608071    -0.14600
C4104       C  0.17620202  0.51236799  0.79548268    -0.12300
C4105       C  0.15038002  0.48415092  0.79123213     0.01000
C4106       C  0.12558331  0.49247874  0.78768333    -0.24500
H4107       H  0.20542389  0.68634037  0.79956060     0.09000
H4108       H  0.20185365  0.62348475  0.79985052     0.12600
H4109       H  0.11424091  0.64357789  0.78569252     0.11300
H4110       H  0.08492110  0.57775477  0.78189789     0.12500
H4111       H  0.08149250  0.51422948  0.78142451     0.11500
H4112       H  0.19916363  0.56889868  0.79937975     0.08600
H4113       H  0.19576302  0.50676588  0.79829035     0.11900
H4114       H  0.10519016  0.47069982  0.78443351     0.13700
C4115       C  0.31673928  0.48068145  0.79122045    -0.01800
C4116       C  0.32210571  0.51220904  0.79495553    -0.09800
C4117       C  0.35744352  0.54822025  0.79478710    -0.18600
C4118       C  0.38871878  0.55378864  0.79086016     0.03800
C4119       C  0.38320802  0.52147480  0.78715293     0.17900
C4120       C  0.34775139  0.48560404  0.78738568    -0.20100
C4121       C  0.41297504  0.52506925  0.78318148    -0.21300
C4122       C  0.44842584  0.56016706  0.78281780    -0.19900
C4123       C  0.45493802  0.59253362  0.78640659     0.19300
C4124       C  0.42524854  0.59002244  0.79047277     0.01500
C4125       C  0.43362391  0.62382332  0.79397741    -0.14600
C4126       C  0.47015110  0.65824860  0.79353362    -0.12300
C4127       C  0.49930307  0.66024838  0.78955097     0.01000
C4128       C  0.49127617  0.62735512  0.78596922    -0.24500
H4129       H  0.29860351  0.50936151  0.79792639     0.09000
H4130       H  0.35923387  0.57117681  0.79774762     0.12600
H4131       H  0.34421710  0.46146326  0.78448432     0.11300
H4132       H  0.40882305  0.50050715  0.78033412     0.12500
H4133       H  0.47096169  0.56197683  0.77971235     0.11500
H4134       H  0.41271632  0.62454015  0.79712627     0.08600
H4135       H  0.47555618  0.68344253  0.79632460     0.11900
H4136       H  0.51373172  0.62852866  0.78290777     0.13700
C4137       C  0.83001405  0.96516978  0.78827722    -0.01800
C4138       C  0.85058305  0.97955692  0.78271501    -0.09800
C4139       C  0.88253880  0.01786462  0.78235758    -0.18600
C4140       C  0.89484350  0.04309193  0.78758462     0.03800
C4141       C  0.87468468  0.02772741  0.79326117     0.17900
C4142       C  0.84298687  0.98918822  0.79356190    -0.20100
C4143       C  0.88565647  0.05110409  0.79859741    -0.21300
C4144       C  0.91614087  0.08982574  0.79841765    -0.19900
C4145       C  0.93648073  0.10599306  0.79290513     0.19300
C4146       C  0.92624768  0.08294001  0.78740106     0.01500
C4147       C  0.94801681  0.10080422  0.78197474    -0.14600
C4148       C  0.97933852  0.13942263  0.78207531    -0.12300
C4149       C  0.98953044  0.16169794  0.78753594     0.01000
C4150       C  0.96753940  0.14500453  0.79290497    -0.24500
H4151       H  0.84121744  0.96161385  0.77856434     0.09000
H4152       H  0.89651114  0.02699816  0.77790221     0.12600
H4153       H  0.82766736  0.97825050  0.79792292     0.11300
H4154       H  0.87036132  0.03942799  0.80293670     0.12500
H4155       H  0.92392226  0.10722827  0.80262646     0.11500
H4156       H  0.94196563  0.08563990  0.77760033     0.08600
H4157       H  0.99584350  0.15183998  0.77785427     0.11900
H4158       H  0.97549194  0.16195939  0.79716490     0.13700
C4159       C  0.38788940  0.41912182  0.93045670    -0.01800
C4160       C  0.38229414  0.38528404  0.92732970    -0.09800
C4161       C  0.36061111  0.37292257  0.92180634    -0.18600
C4162       C  0.34369170  0.39413095  0.91919307     0.03800
C4163       C  0.34978407  0.42857073  0.92235194     0.17900
C4164       C  0.37140626  0.44050147  0.92790064    -0.20100
C4165       C  0.33437889  0.45116472  0.91995327    -0.21300
C4166       C  0.31295679  0.44037413  0.91447234    -0.19900
C4167       C  0.30606470  0.40650851  0.91126215     0.19300
C4168       C  0.32112425  0.38270217  0.91356850     0.01500
C4169       C  0.31275151  0.34857467  0.91014183    -0.14600
C4170       C  0.29062226  0.33877161  0.90465978    -0.12300
C4171       C  0.27618302  0.36261391  0.90237377     0.01000
C4172       C  0.28410335  0.39643433  0.90574289    -0.24500
H4173       H  0.39477486  0.36818913  0.92914827     0.09000
H4174       H  0.35774683  0.34675882  0.91967703     0.12600
H4175       H  0.37544149  0.46677393  0.93022733     0.11300
H4176       H  0.33903226  0.47751366  0.92232831     0.12500
H4177       H  0.30157461  0.45865053  0.91273851     0.11500
H4178       H  0.32282576  0.32882083  0.91158577     0.08600
H4179       H  0.28509537  0.31249273  0.90217470     0.11900
H4180       H  0.27299559  0.41511108  0.90408266     0.13700
C4181       C  0.15792437  0.31985272  0.84903428    -0.01800
C4182       C  0.16036876  0.35257545  0.84598267    -0.09800
C4183       C  0.17020785  0.35940013  0.83972485    -0.18600
C4184       C  0.17805444  0.33359466  0.83624483     0.03800
C4185       C  0.17401118  0.29956318  0.83926702     0.17900
C4186       C  0.16404858  0.29301074  0.84558985    -0.20100
C4187       C  0.18034554  0.27248322  0.83597247    -0.21300
C4188       C  0.18978440  0.27802342  0.82970547    -0.19900
C4189       C  0.19366574  0.31107170  0.82658821     0.19300
C4190       C  0.18894102  0.33989869  0.82984987     0.01500
C4191       C  0.19481939  0.37350937  0.82653818    -0.14600
C4192       C  0.20150750  0.37659698  0.82015934    -0.12300
C4193       C  0.20286229  0.34654245  0.81685081     0.01000
C4194       C  0.20068482  0.31467127  0.82016875    -0.24500
H4195       H  0.15554037  0.37375440  0.84847590     0.09000
H4196       H  0.17146836  0.38521663  0.83775435     0.12600
H4197       H  0.16222466  0.26753052  0.84786446     0.11300
H4198       H  0.17747849  0.24654363  0.83823995     0.12500
H4199       H  0.19366219  0.25605883  0.82726265     0.11500
H4200       H  0.19352802  0.39755441  0.82871297     0.08600
H4201       H  0.20365032  0.40185377  0.81777120     0.11900
H4202       H  0.20219945  0.29136249  0.81770869     0.13700
C4203       C  0.82769592  0.99640663  0.87583604    -0.01800
C4204       C  0.85499580  0.99942434  0.87136526    -0.09800
C4205       C  0.89078232  0.03432597  0.87061869    -0.18600
C4206       C  0.90046261  0.06766964  0.87432620     0.03800
C4207       C  0.87234679  0.06456278  0.87878737     0.17900
C4208       C  0.83668329  0.02916810  0.87953249    -0.20100
C4209       C  0.87998269  0.09677025  0.88251210    -0.21300
C4210       C  0.91548151  0.13177918  0.88204272    -0.19900
C4211       C  0.94429065  0.13538888  0.87785542     0.19300
C4212       C  0.93716493  0.10372836  0.87385967     0.01500
C4213       C  0.96746711  0.10942586  0.86969184    -0.14600
C4214       C  0.00385021  0.14447220  0.86970410    -0.12300
C4215       C  0.01109390  0.17498814  0.87382423     0.01000
C4216       C  0.98065272  0.17035271  0.87777619    -0.24500
H4217       H  0.84882745  0.97454177  0.86843710     0.09000
H4218       H  0.91023357  0.03423168  0.86711083     0.12600
H4219       H  0.81564548  0.02732555  0.88295978     0.11300
H4220       H  0.85852135  0.09473368  0.88586832     0.12500
H4221       H  0.92072381  0.15601795  0.88506301     0.11500
H4222       H  0.96426972  0.08709111  0.86645575     0.08600
H4223       H  0.02669236  0.14723035  0.86658598     0.11900
H4224       H  0.98548095  0.19379140  0.88095103     0.13700
C4225       C  0.34558514  0.48569797  0.87970122    -0.01800
C4226       C  0.37802790  0.49315836  0.87604396    -0.09800
C4227       C  0.41181445  0.53013652  0.87602956    -0.18600
C4228       C  0.41436285  0.56122731  0.87969674     0.03800
C4229       C  0.38169645  0.55343314  0.88348651     0.17900
C4230       C  0.34786076  0.51596273  0.88347123    -0.20100
C4231       C  0.38273079  0.58323775  0.88719569    -0.21300
C4232       C  0.41521631  0.62104870  0.88710307    -0.19900
C4233       C  0.44755955  0.62988393  0.88333413     0.19300
C4234       C  0.44783575  0.59988484  0.87965557     0.01500
C4235       C  0.48149099  0.60995143  0.87604593    -0.14600
C4236       C  0.51280515  0.64830954  0.87592065    -0.12300
C4237       C  0.51200005  0.67816115  0.87938369     0.01000
C4238       C  0.47952832  0.66864381  0.88317085    -0.24500
H4239       H  0.37725263  0.47040054  0.87310262     0.09000
H4240       H  0.43511932  0.53340688  0.87302194     0.12600
H4241       H  0.32293742  0.51068599  0.88631493     0.11300
H4242       H  0.35800486  0.57739461  0.89012980     0.12500
H4243       H  0.41490922  0.64360536  0.88996380     0.11500
H4244       H  0.48465846  0.58901976  0.87323880     0.08600
H4245       H  0.53790235  0.65455533  0.87305107     0.11900
H4246       H  0.47876333  0.69149099  0.88589186     0.13700
C4247       C  0.16645296  0.15873873  0.87614339    -0.01800
C4248       C  0.14394842  0.13214206  0.87144997    -0.09800
C4249       C  0.14124990  0.09532880  0.87098041    -0.18600
C4250       C  0.16126796  0.08391936  0.87519877     0.03800
C4251       C  0.18430843  0.11122988  0.87991084     0.17900
C4252       C  0.18646406  0.14791098  0.88035784    -0.20100
C4253       C  0.20525687  0.10191964  0.88416255    -0.21300
C4254       C  0.20385008  0.06595652  0.88385910    -0.19900
C4255       C  0.18120398  0.03828002  0.87932682     0.19300
C4256       C  0.15940391  0.04657102  0.87493260     0.01500
C4257       C  0.13660234  0.01696292  0.87052504    -0.14600
C4258       C  0.13545559  0.98065816  0.87052876    -0.12300
C4259       C  0.15703506  0.97278181  0.87489700     0.01000
C4260       C  0.18005892  0.00208754  0.87923629    -0.24500
H4261       H  0.12811743  0.13969611  0.86812507     0.09000
H4262       H  0.12344284  0.07656162  0.86725341     0.12600
H4263       H  0.20426938  0.16831889  0.88397208     0.11300
H4264       H  0.22291733  0.12263641  0.88775050     0.12500
H4265       H  0.22043860  0.05964046  0.88722726     0.11500
H4266       H  0.11899657  0.02079354  0.86706652     0.08600
H4267       H  0.11719642  0.95853604  0.86715421     0.11900
H4268       H  0.19705464  0.99668110  0.88265476     0.13700
C4269       C  0.14136207  0.64226797  0.87999537    -0.01800
C4270       C  0.15754943  0.63513663  0.88528960    -0.09800
C4271       C  0.16404206  0.60329978  0.88551827    -0.18600
C4272       C  0.15485611  0.57770436  0.88039782     0.03800
C4273       C  0.13707282  0.58435272  0.87513469     0.17900
C4274       C  0.13027433  0.61612471  0.87500207    -0.20100
C4275       C  0.12693473  0.55980542  0.86995650    -0.21300
C4276       C  0.13424233  0.52875452  0.86985958    -0.19900
C4277       C  0.15212916  0.52171041  0.87491867     0.19300
C4278       C  0.16290877  0.54600977  0.88026450     0.01500
C4279       C  0.18163767  0.53767080  0.88517402    -0.14600
C4280       C  0.18869477  0.50607280  0.88479563    -0.12300
C4281       C  0.17736344  0.48193292  0.87952799     0.01000
C4282       C  0.15929597  0.49031022  0.87461391    -0.24500
H4283       H  0.16592872  0.65469453  0.88924892     0.09000
H4284       H  0.17675476  0.59984158  0.88972728     0.12600
H4285       H  0.11777617  0.62138979  0.87087974     0.11300
H4286       H  0.11342114  0.56476169  0.86593689     0.12500
H4287       H  0.12606883  0.51023985  0.86577126     0.11500
H4288       H  0.19122888  0.55501958  0.88935300     0.08600
H4289       H  0.20279287  0.50040278  0.88865533     0.11900
H4290       H  0.15046149  0.47216821  0.87047922     0.13700
C4291       C  0.23304588  0.93270544  0.76371294    -0.01800
C4292       C  0.26701066  0.93892455  0.76057641    -0.09800
C4293       C  0.28007427  0.96234573  0.75524360    -0.18600
C4294       C  0.25959997  0.98066167  0.75285392     0.03800
C4295       C  0.22469757  0.97348162  0.75596070     0.17900
C4296       C  0.21194193  0.94993959  0.76130860    -0.20100
C4297       C  0.20271251  0.99005857  0.75374375    -0.21300
C4298       C  0.21469961  0.01390532  0.74852097    -0.19900
C4299       C  0.24914685  0.02205837  0.74538470     0.19300
C4300       C  0.27228858  0.00576768  0.74751156     0.01500
C4301       C  0.30711210  0.01555408  0.74420552    -0.14600
C4302       C  0.31785502  0.03958956  0.73894431    -0.12300
C4303       C  0.29434216  0.05468337  0.73674915     0.01000
C4304       C  0.26026613  0.04613413  0.74008237    -0.24500
H4305       H  0.28386272  0.92585945  0.76227014     0.09000
H4306       H  0.30634463  0.96563128  0.75310293     0.12600
H4307       H  0.18553666  0.94540337  0.76363913     0.11300
H4308       H  0.17597254  0.98454419  0.75607184     0.12500
H4309       H  0.19686973  0.02613965  0.74692718     0.11500
H4310       H  0.32659786  0.00494576  0.74555434     0.08600
H4311       H  0.34440672  0.04565139  0.73650568     0.11900
H4312       H  0.24193550  0.05785012  0.73850623     0.13700
C4313       C  0.32469080  0.15790487  0.65068044    -0.01800
C4314       C  0.35686121  0.15843326  0.65362984    -0.09800
C4315       C  0.36369094  0.16610283  0.65994647    -0.18600
C4316       C  0.33835139  0.17343606  0.66363118     0.03800
C4317       C  0.30547760  0.17257479  0.66067722     0.17900
C4318       C  0.29904907  0.16506679  0.65426145    -0.20100
C4319       C  0.27922182  0.17916281  0.66415529    -0.21300
C4320       C  0.28451420  0.18591228  0.67051146    -0.19900
C4321       C  0.31653566  0.18684075  0.67355344     0.19300
C4322       C  0.34422225  0.18112503  0.67014535     0.01500
C4323       C  0.37637094  0.18299856  0.67342566    -0.14600
C4324       C  0.38002265  0.18877038  0.67983261    -0.12300
C4325       C  0.35188034  0.19285614  0.68323975     0.01000
C4326       C  0.32055376  0.19261253  0.68001454    -0.24500
H4327       H  0.37745988  0.15329816  0.65102934     0.09000
H4328       H  0.38910615  0.16595756  0.66179603     0.12600
H4329       H  0.27431496  0.16524893  0.65205456     0.11300
H4330       H  0.25413987  0.17866571  0.66195584     0.12500
H4331       H  0.26328210  0.19030215  0.67307374     0.11500
H4332       H  0.39899734  0.17954069  0.67119924     0.08600
H4333       H  0.40440170  0.18856560  0.68215071     0.11900
H4334       H  0.29833768  0.19552111  0.68255798     0.13700
C4335       C  0.37284483  0.27014816  0.59708619    -0.01800
C4336       C  0.40918918  0.28001958  0.59440127    -0.09800
C4337       C  0.42121827  0.30076485  0.58885231    -0.18600
C4338       C  0.39736622  0.31286275  0.58574711     0.03800
C4339       C  0.36033023  0.30258142  0.58841867     0.17900
C4340       C  0.34829746  0.28117573  0.59400438    -0.20100
C4341       C  0.33584497  0.31430994  0.58554758    -0.21300
C4342       C  0.34756367  0.33648283  0.58012802    -0.19900
C4343       C  0.38385509  0.34707492  0.57738291     0.19300
C4344       C  0.40915676  0.33515160  0.58013295     0.01500
C4345       C  0.44525645  0.34618432  0.57715151    -0.14600
C4346       C  0.45575486  0.36801518  0.57169494    -0.12300
C4347       C  0.43086911  0.37981671  0.56896633     0.01000
C4348       C  0.39492270  0.36934118  0.57187830    -0.24500
H4349       H  0.42888945  0.27192073  0.59661664     0.09000
H4350       H  0.44964717  0.30722722  0.58716924     0.12600
H4351       H  0.32003911  0.27366191  0.59599329     0.11300
H4352       H  0.30756759  0.30662637  0.58754351     0.12500
H4353       H  0.32803588  0.34535929  0.57806178     0.11500
H4354       H  0.46609876  0.33827987  0.57888509     0.08600
H4355       H  0.48370508  0.37554186  0.56959504     0.11900
H4356       H  0.37527632  0.37815375  0.56983486     0.13700
C4357       C  0.67058430  0.49302389  0.71038510    -0.01800
C4358       C  0.66795237  0.46488631  0.70610679    -0.09800
C4359       C  0.63349475  0.42846468  0.70555744    -0.18600
C4360       C  0.60020100  0.41924313  0.70923403     0.03800
C4361       C  0.60347833  0.44771296  0.71365066     0.17900
C4362       C  0.63849886  0.48377779  0.71423928    -0.20100
C4363       C  0.57150411  0.44050154  0.71738005    -0.21300
C4364       C  0.53596737  0.40574976  0.71677426    -0.19900
C4365       C  0.53177943  0.37706501  0.71250641     0.19300
C4366       C  0.56371857  0.38307169  0.70868239     0.01500
C4367       C  0.55758752  0.35251320  0.70452260    -0.14600
C4368       C  0.52157954  0.31707260  0.70433656    -0.12300
C4369       C  0.49053252  0.31123763  0.70822083     0.01000
C4370       C  0.49580476  0.34193597  0.71217058    -0.24500
H4371       H  0.69260993  0.47109703  0.70313306     0.09000
H4372       H  0.63363060  0.40845877  0.70214993     0.12600
H4373       H  0.64024104  0.50526163  0.71757985     0.11300
H4374       H  0.57386203  0.46208076  0.72074969     0.12500
H4375       H  0.51163589  0.40112294  0.71971174     0.11500
H4376       H  0.58023982  0.35479260  0.70144750     0.08600
H4377       H  0.51837819  0.29390911  0.70124089     0.11900
H4378       H  0.47204166  0.33819615  0.71517240     0.13700
C4379       C  0.16922722  0.98724266  0.71343255    -0.01800
C4380       C  0.14419417  0.98080268  0.71846860    -0.09800
C4381       C  0.10549489  0.94945667  0.71844241    -0.18600
C4382       C  0.09045618  0.92348825  0.71333221     0.03800
C4383       C  0.11618713  0.92997239  0.70827126     0.17900
C4384       C  0.15495054  0.96147862  0.70836793    -0.20100
C4385       C  0.10314917  0.90505857  0.70311472    -0.21300
C4386       C  0.06507575  0.87343157  0.70288606    -0.19900
C4387       C  0.03902914  0.86623405  0.70777799     0.19300
C4388       C  0.05101428  0.89122834  0.71305619     0.01500
C4389       C  0.02297922  0.88264724  0.71780412    -0.14600
C4390       C  0.98512435  0.84984074  0.71739300    -0.12300
C4391       C  0.97402927  0.82473285  0.71224308     0.01000
C4392       C  0.00108047  0.83369672  0.70741972    -0.24500
H4393       H  0.15443962  0.00023850  0.72244913     0.09000
H4394       H  0.08812131  0.94639889  0.72248348     0.12600
H4395       H  0.17384902  0.96627911  0.70441457     0.11300
H4396       H  0.12262345  0.90991291  0.69924385     0.12500
H4397       H  0.05594683  0.85440188  0.69885128     0.11500
H4398       H  0.02947046  0.90048004  0.72191033     0.08600
H4399       H  0.96476937  0.84377655  0.72117527     0.11900
H4400       H  0.99298780  0.81474585  0.70338206     0.13700
C4401       C  0.76773432  0.69522556  0.73689097    -0.01800
C4402       C  0.73084297  0.66918551  0.73946158    -0.09800
C4403       C  0.71772426  0.67926467  0.74480567    -0.18600
C4404       C  0.74129299  0.71589457  0.74779220     0.03800
C4405       C  0.77897343  0.74174891  0.74523462     0.17900
C4406       C  0.79170674  0.73128892  0.73986877    -0.20100
C4407       C  0.80379792  0.77817917  0.74801104    -0.21300
C4408       C  0.79201769  0.78973906  0.75328032    -0.19900
C4409       C  0.75504652  0.76522300  0.75589820     0.19300
C4410       C  0.72903393  0.72793279  0.75320754     0.01500
C4411       C  0.69200165  0.70452434  0.75606236    -0.14600
C4412       C  0.68149272  0.71755728  0.76137204    -0.12300
C4413       C  0.70740508  0.75427653  0.76402758     0.01000
C4414       C  0.74411503  0.77791690  0.76122379    -0.24500
H4415       H  0.71163172  0.64105377  0.73728313     0.09000
H4416       H  0.68894851  0.65785207  0.74646276     0.12600
H4417       H  0.82038709  0.75170077  0.73797023     0.11300
H4418       H  0.83257942  0.79795212  0.74608611     0.12500
H4419       H  0.81199426  0.81815427  0.75531876     0.11500
H4420       H  0.67052681  0.67598053  0.75431433     0.08600
H4421       H  0.65296574  0.69853632  0.76342972     0.11900
H4422       H  0.76452001  0.80641532  0.76319985     0.13700
C4423       C  0.17474793  0.01425364  0.62480774    -0.01800
C4424       C  0.14677028  0.00374632  0.62951268    -0.09800
C4425       C  0.11269458  0.96649484  0.62951150    -0.18600
C4426       C  0.10568129  0.93859193  0.62477413     0.03800
C4427       C  0.13425511  0.94962349  0.62003406     0.17900
C4428       C  0.16802534  0.98674049  0.62010486    -0.20100
C4429       C  0.12919883  0.92362247  0.61521392    -0.21300
C4430       C  0.09610378  0.88648803  0.61498047    -0.19900
C4431       C  0.06733099  0.87443407  0.61956932     0.19300
C4432       C  0.07160408  0.90019894  0.62454174     0.01500
C4433       C  0.04163090  0.88627400  0.62905293    -0.14600
C4434       C  0.00888506  0.84856409  0.62862123    -0.12300
C4435       C  0.00461903  0.82348361  0.62366635     0.01000
C4436       C  0.03417954  0.83666594  0.61917963    -0.24500
H4437       H  0.15112841  0.02434011  0.63318967     0.09000
H4438       H  0.09242918  0.96045229  0.63327007     0.12600
H4439       H  0.18928276  0.99405881  0.61641403     0.11300
H4440       H  0.15104091  0.93208180  0.61158781     0.12500
H4441       H  0.09302072  0.86704120  0.61118373     0.11500
H4442       H  0.04255495  0.90381136  0.63296063     0.08600
H4443       H  0.98650491  0.83931057  0.63216695     0.11900
H4444       H  0.03135415  0.81758386  0.61533942     0.13700
C4445       C  0.68751814  0.50671129  0.62004688    -0.01800
C4446       C  0.65647998  0.50943575  0.62270874    -0.09800
C4447       C  0.61819137  0.47802889  0.62246244    -0.18600
C4448       C  0.60950643  0.44225004  0.61958247     0.03800
C4449       C  0.64080433  0.43998026  0.61666109     0.17900
C4450       C  0.67946508  0.47220510  0.61689694    -0.20100
C4451       C  0.63330774  0.40541975  0.61360186    -0.21300
C4452       C  0.59549845  0.37278689  0.61348794    -0.19900
C4453       C  0.56436200  0.37379428  0.61648722     0.19300
C4454       C  0.57094854  0.40861560  0.61956305     0.01500
C4455       C  0.53880738  0.40803219  0.62261516    -0.14600
C4456       C  0.50189389  0.37426543  0.62268238    -0.12300
C4457       C  0.49545409  0.33983298  0.61971629     0.01000
C4458       C  0.52677152  0.33994976  0.61654323    -0.24500
H4459       H  0.66180479  0.53620393  0.62501840     0.09000
H4460       H  0.59619589  0.48284979  0.62459996     0.12600
H4461       H  0.70336271  0.47006269  0.61477612     0.11300
H4462       H  0.65689327  0.40351151  0.61132246     0.12500
H4463       H  0.59070271  0.34637259  0.61111899     0.11500
H4464       H  0.54117499  0.43291605  0.62509993     0.08600
H4465       H  0.47826519  0.37513300  0.62513243     0.11900
H4466       H  0.52222610  0.31336526  0.61425808     0.13700
C4467       C  0.83336977  0.67142508  0.65053440    -0.01800
C4468       C  0.86729168  0.69878648  0.65374259    -0.09800
C4469       C  0.87158436  0.69464778  0.66009016    -0.18600
C4470       C  0.84197418  0.66269155  0.66348346     0.03800
C4471       C  0.80702543  0.63588028  0.66027172     0.17900
C4472       C  0.80303990  0.64046768  0.65389437    -0.20100
C4473       C  0.77640474  0.60418618  0.66341951    -0.21300
C4474       C  0.77952416  0.59863697  0.66971027    -0.19900
C4475       C  0.81350471  0.62440431  0.67302146     0.19300
C4476       C  0.84553547  0.65645002  0.66994030     0.01500
C4477       C  0.87957614  0.68083207  0.67347511    -0.14600
C4478       C  0.88066422  0.67523641  0.67985324    -0.12300
C4479       C  0.84811679  0.64503987  0.68295664     0.01000
C4480       C  0.81511113  0.61891022  0.67944252    -0.24500
H4481       H  0.89127617  0.72303190  0.65130805     0.09000
H4482       H  0.89858283  0.71677985  0.66219737     0.12600
H4483       H  0.77649264  0.61914313  0.65151279     0.11300
H4484       H  0.74969924  0.58357908  0.66100117     0.12500
H4485       H  0.75504856  0.57404944  0.67201116     0.11500
H4486       H  0.90560954  0.70495095  0.67146816     0.08600
H4487       H  0.90678929  0.69566911  0.68240779     0.11900
H4488       H  0.78967750  0.59542313  0.68175210     0.13700
C4489       C  0.90628772  0.61784283  0.59746467    -0.01800
C4490       C  0.94419858  0.64210277  0.59506522    -0.09800
C4491       C  0.95635571  0.63222097  0.58957942    -0.18600
C4492       C  0.93080475  0.59759565  0.58623784     0.03800
C4493       C  0.89248587  0.57300791  0.58869523     0.17900
C4494       C  0.88073350  0.58318152  0.59422883    -0.20100
C4495       C  0.86593529  0.53832390  0.58561011    -0.21300
C4496       C  0.87656495  0.52732942  0.58014446    -0.19900
C4497       C  0.91404544  0.55072013  0.57759593     0.19300
C4498       C  0.94172002  0.58633743  0.58056983     0.01500
C4499       C  0.97893958  0.60898789  0.57771697    -0.14600
C4500       C  0.98835834  0.59648321  0.57221767    -0.12300
C4501       C  0.96118495  0.56098756  0.56934359     0.01000
C4502       C  0.92391334  0.53848647  0.57208148    -0.24500
H4503       H  0.96479533  0.66892571  0.59745095     0.09000
H4504       H  0.98595800  0.65228556  0.58807203     0.12600
H4505       H  0.85132532  0.56400495  0.59599304     0.11300
H4506       H  0.83666649  0.51945760  0.58744597     0.12500
H4507       H  0.85525369  0.50021772  0.57789415     0.11500
H4508       H  0.00142636  0.63655414  0.57962375     0.08600
H4509       H  0.01722781  0.61478968  0.57021924     0.11900
H4510       H  0.90228263  0.51115191  0.56992089     0.13700
C4511       C  0.81877737  0.82056180  0.71382611    -0.01800
C4512       C  0.80169607  0.83079670  0.70901034    -0.09800
C4513       C  0.80720354  0.86849667  0.70858038    -0.18600
C4514       C  0.83032821  0.89776961  0.71296624     0.03800
C4515       C  0.84620337  0.88705734  0.71802134     0.17900
C4516       C  0.84064232  0.84877533  0.71838352    -0.20100
C4517       C  0.86769807  0.91473489  0.72263697    -0.21300
C4518       C  0.87382567  0.95289198  0.72231558    -0.19900
C4519       C  0.85946217  0.96457251  0.71729083     0.19300
C4520       C  0.83803032  0.93720682  0.71250358     0.01500
C4521       C  0.82567138  0.95057852  0.70738283    -0.14600
C4522       C  0.83276868  0.98889221  0.70713028    -0.12300
C4523       C  0.85222282  0.01554423  0.71196847     0.01000
C4524       C  0.86615092  0.00335031  0.71701238    -0.24500
H4525       H  0.78441179  0.80975219  0.70544000     0.09000
H4526       H  0.79272624  0.87356245  0.70475149     0.12600
H4527       H  0.85376963  0.84117936  0.72216782     0.11300
H4528       H  0.87968581  0.90677038  0.72653535     0.12500
H4529       H  0.89026338  0.97351307  0.72598631     0.11500
H4530       H  0.81063709  0.93234770  0.70344450     0.08600
H4531       H  0.82205989  0.99730021  0.70312222     0.11900
H4532       H  0.88161608  0.02373658  0.72076082     0.13700
C4533       C  0.83416875  0.32558539  0.71007222    -0.01800
C4534       C  0.80805645  0.32796743  0.70587590    -0.09800
C4535       C  0.80728359  0.36300248  0.70511956    -0.18600
C4536       C  0.83327123  0.39730386  0.70847474     0.03800
C4537       C  0.86006026  0.39482579  0.71264960     0.17900
C4538       C  0.85974032  0.35914767  0.71349068    -0.20100
C4539       C  0.88757758  0.42816215  0.71590323    -0.21300
C4540       C  0.88906453  0.46398595  0.71513629    -0.19900
C4541       C  0.86235443  0.46717913  0.71122573     0.19300
C4542       C  0.83391174  0.43398732  0.70784084     0.01500
C4543       C  0.80709011  0.43898463  0.70408042    -0.14600
C4544       C  0.80787025  0.47510495  0.70385787    -0.12300
C4545       C  0.83557991  0.50746805  0.70731188     0.01000
C4546       C  0.86332090  0.50330741  0.71085190    -0.24500
H4547       H  0.78796219  0.30252452  0.70315530     0.09000
H4548       H  0.78649229  0.36250404  0.70180379     0.12600
H4549       H  0.88038553  0.35787328  0.71669043     0.11300
H4550       H  0.90830224  0.42658450  0.71904413     0.12500
H4551       H  0.91083059  0.48925902  0.71772246     0.11500
H4552       H  0.78445234  0.41522862  0.70140314     0.08600
H4553       H  0.78590541  0.47729160  0.70111975     0.11900
H4554       H  0.88514886  0.52804178  0.71353102     0.13700
C4555       C  0.00591087  0.16833063  0.71272160    -0.01800
C4556       C  0.01564429  0.15421659  0.71799941    -0.09800
C4557       C  0.04793428  0.14839810  0.71800175    -0.18600
C4558       C  0.07178670  0.15652386  0.71268581     0.03800
C4559       C  0.06189674  0.17097947  0.70734506     0.17900
C4560       C  0.02928154  0.17665428  0.70740709    -0.20100
C4561       C  0.08466008  0.17979773  0.70197099    -0.21300
C4562       C  0.11721844  0.17469402  0.70178355    -0.19900
C4563       C  0.12776173  0.16054134  0.70696131     0.19300
C4564       C  0.10519485  0.15112264  0.71248569     0.01500
C4565       C  0.11728861  0.13701442  0.71757655    -0.14600
C4566       C  0.15071573  0.13313462  0.71722948    -0.12300
C4567       C  0.17321928  0.14301860  0.71181071     0.01000
C4568       C  0.16115926  0.15627343  0.70666562    -0.24500
H4569       H  0.99821228  0.14762199  0.72217677     0.09000
H4570       H  0.05339856  0.13754323  0.72224646     0.12600
H4571       H  0.02186507  0.18721249  0.70326872     0.11300
H4572       H  0.07733513  0.19090064  0.69788906     0.12500
H4573       H  0.13438650  0.18204129  0.69756305     0.11500
H4574       H  0.10180055  0.12903757  0.72192144     0.08600
H4575       H  0.15929066  0.12292243  0.72127736     0.11900
H4576       H  0.17810619  0.16387180  0.70241772     0.13700
C4577       C  0.67277256  0.14354566  0.70741287    -0.01800
C4578       C  0.64188726  0.11357147  0.71082402    -0.09800
C4579       C  0.60464231  0.10963074  0.71090800    -0.18600
C4580       C  0.59667936  0.13576212  0.70757357     0.03800
C4581       C  0.62740216  0.16501690  0.70387256     0.17900
C4582       C  0.66497175  0.16856630  0.70380052    -0.20100
C4583       C  0.62073825  0.19128022  0.70041654    -0.21300
C4584       C  0.58465415  0.18990975  0.70070148    -0.19900
C4585       C  0.55434643  0.16233275  0.70446528     0.19300
C4586       C  0.55968974  0.13451097  0.70790433     0.01500
C4587       C  0.52812622  0.10739792  0.71165609    -0.14600
C4588       C  0.49338374  0.10883485  0.71213213    -0.12300
C4589       C  0.48857967  0.13683534  0.70883149     0.01000
C4590       C  0.51898155  0.16302247  0.70491493    -0.24500
H4591       H  0.64663612  0.09332635  0.71359819     0.09000
H4592       H  0.58296673  0.08617850  0.71372564     0.12600
H4593       H  0.68848156  0.19180152  0.70112798     0.11300
H4594       H  0.64381746  0.21348399  0.69755113     0.12500
H4595       H  0.58066814  0.21107306  0.69804178     0.11500
H4596       H  0.52950364  0.08511511  0.71437137     0.08600
H4597       H  0.47019360  0.08797329  0.71512966     0.11900
H4598       H  0.51566187  0.18494075  0.70235175     0.13700
C4599       C  0.93724252  0.22242705  0.73666112    -0.01800
C4600       C  0.94568829  0.19561715  0.73959703    -0.09800
C4601       C  0.96736989  0.20543252  0.74507123    -0.18600
C4602       C  0.98183149  0.24283882  0.74783325     0.03800
C4603       C  0.97303737  0.26995848  0.74489116     0.17900
C4604       C  0.95089208  0.25958222  0.73937053    -0.20100
C4605       C  0.98652743  0.30731658  0.74747014    -0.21300
C4606       C  0.00840902  0.31828721  0.75292732    -0.19900
C4607       C  0.01769522  0.29232710  0.75592338     0.19300
C4608       C  0.00470623  0.25427990  0.75339758     0.01500
C4609       C  0.01543809  0.22943756  0.75653056    -0.14600
C4610       C  0.03789527  0.24174078  0.76193179    -0.12300
C4611       C  0.05062729  0.27921086  0.76444969     0.01000
C4612       C  0.04018052  0.30431471  0.76141169    -0.24500
H4613       H  0.93542117  0.16658461  0.73766366     0.09000
H4614       H  0.97222348  0.18294708  0.74701210     0.12600
H4615       H  0.94468676  0.28066672  0.73715193     0.11300
H4616       H  0.98005221  0.32821204  0.74525540     0.12500
H4617       H  0.01831174  0.34740062  0.75480317     0.11500
H4618       H  0.00721918  0.20033353  0.75492060     0.08600
H4619       H  0.04538486  0.22155499  0.76413375     0.11900
H4620       H  0.04971392  0.33335318  0.76329240     0.13700
C4621       C  0.48049538  0.16324625  0.62035505    -0.01800
C4622       C  0.47783607  0.13043238  0.62337966    -0.09800
C4623       C  0.50887688  0.12295815  0.62323635    -0.18600
C4624       C  0.54406298  0.14845781  0.62008815     0.03800
C4625       C  0.54585333  0.18051989  0.61673121     0.17900
C4626       C  0.51421190  0.18770854  0.61690707    -0.20100
C4627       C  0.57937089  0.20540603  0.61328283    -0.21300
C4628       C  0.61150423  0.19957585  0.61319268    -0.19900
C4629       C  0.61121799  0.16932694  0.61667107     0.19300
C4630       C  0.57757025  0.14341137  0.62019258     0.01500
C4631       C  0.57936470  0.11431427  0.62381535    -0.14600
C4632       C  0.61318039  0.11117127  0.62393835    -0.12300
C4633       C  0.64624575  0.13668007  0.62044760     0.01000
C4634       C  0.64482904  0.16544753  0.61676694    -0.24500
H4635       H  0.45151951  0.11032968  0.62591189     0.09000
H4636       H  0.50430916  0.09695251  0.62563507     0.12600
H4637       H  0.51623164  0.21286597  0.61448841     0.11300
H4638       H  0.58080836  0.22962810  0.61065911     0.12500
H4639       H  0.63710508  0.21941081  0.61049135     0.11500
H4640       H  0.55554040  0.09410371  0.62673106     0.08600
H4641       H  0.61348620  0.08881841  0.62683891     0.11900
H4642       H  0.67037888  0.18573248  0.61409190     0.13700
C4643       C  0.97920855  0.15676462  0.62454776    -0.01800
C4644       C  0.99057707  0.14179325  0.62951999    -0.09800
C4645       C  0.02749352  0.14439128  0.62956284    -0.18600
C4646       C  0.05432336  0.16218190  0.62460189     0.03800
C4647       C  0.04246064  0.17713268  0.61957230     0.17900
C4648       C  0.00542864  0.17418336  0.61958233    -0.20100
C4649       C  0.06764329  0.19518696  0.61454757    -0.21300
C4650       C  0.10465359  0.19880023  0.61439405    -0.19900
C4651       C  0.11733924  0.18430022  0.61924846     0.19300
C4652       C  0.09243926  0.16581459  0.62443127     0.01500
C4653       C  0.10686751  0.15185288  0.62920498    -0.14600
C4654       C  0.14419996  0.15586316  0.62882553    -0.12300
C4655       C  0.16853107  0.17374688  0.62367775     0.01000
C4656       C  0.15482390  0.18806403  0.61892022    -0.24500
H4657       H  0.97095665  0.12811120  0.63340396     0.09000
H4658       H  0.03415765  0.13228698  0.63354996     0.12600
H4659       H  0.99708786  0.18563513  0.61565491     0.11300
H4660       H  0.05867446  0.20669520  0.61070615     0.12500
H4661       H  0.12346618  0.21297800  0.61043946     0.11500
H4662       H  0.08999563  0.13754417  0.63328586     0.08600
H4663       H  0.15378935  0.14438139  0.63258193     0.11900
H4664       H  0.17326204  0.20202494  0.61491896     0.13700
C4665       C  0.81591123  0.30233428  0.62120467    -0.01800
C4666       C  0.84044429  0.33012111  0.62562361    -0.09800
C4667       C  0.84782801  0.36854831  0.62550589    -0.18600
C4668       C  0.83091151  0.38104808  0.62093108     0.03800
C4669       C  0.80479477  0.35273256  0.61657617     0.17900
C4670       C  0.79787180  0.31382013  0.61669557    -0.20100
C4671       C  0.78561554  0.36346846  0.61218179    -0.21300
C4672       C  0.79176048  0.40164039  0.61204558    -0.19900
C4673       C  0.81789368  0.43021180  0.61621140     0.19300
C4674       C  0.83845420  0.42049015  0.62062927     0.01500
C4675       C  0.86578113  0.45069111  0.62456292    -0.14600
C4676       C  0.87074712  0.48831877  0.62436990    -0.12300
C4677       C  0.84910890  0.49742758  0.62021470     0.01000
C4678       C  0.82328498  0.46837906  0.61604783    -0.24500
H4679       H  0.85452686  0.32237739  0.62923335     0.09000
H4680       H  0.86656142  0.38753159  0.62913532     0.12600
H4681       H  0.77832035  0.29253851  0.61331536     0.11300
H4682       H  0.76538484  0.34209473  0.60887658     0.12500
H4683       H  0.77604168  0.40888958  0.60864833     0.11500
H4684       H  0.88390116  0.44634654  0.62784931     0.08600
H4685       H  0.89134242  0.51022339  0.62757584     0.11900
H4686       H  0.80670647  0.47515602  0.61274401     0.13700
C4687       C  0.81921913  0.98595523  0.62400101    -0.01800
C4688       C  0.84399582  0.98327934  0.62843389    -0.09800
C4689       C  0.84709825  0.94944779  0.62891012    -0.18600
C4690       C  0.82515265  0.91682468  0.62497371     0.03800
C4691       C  0.79951687  0.91948613  0.62057584     0.17900
C4692       C  0.79692869  0.95376864  0.62011796    -0.20100
C4693       C  0.77664498  0.88797345  0.61661764    -0.21300
C4694       C  0.77887725  0.85385351  0.61687338    -0.19900
C4695       C  0.80424894  0.85051495  0.62106543     0.19300
C4696       C  0.82776209  0.88177435  0.62519802     0.01500
C4697       C  0.85305093  0.87658826  0.62929758    -0.14600
C4698       C  0.85527638  0.84205414  0.62919809    -0.12300
C4699       C  0.83236271  0.81164203  0.62503970     0.01000
C4700       C  0.80654317  0.81608175  0.62105630    -0.24500
H4701       H  0.86162718  0.00771925  0.63150993     0.09000
H4702       H  0.86695748  0.94979006  0.63239121     0.12600
H4703       H  0.77737261  0.95531641  0.61672248     0.11300
H4704       H  0.75696571  0.88977338  0.61327858     0.12500
H4705       H  0.76087460  0.83000797  0.61371820     0.11500
H4706       H  0.87186171  0.89885178  0.63257302     0.08600
H4707       H  0.87553484  0.83949730  0.63231142     0.11900
H4708       H  0.78835475  0.79278102  0.61782731     0.13700
C4709       C  0.83898280  0.15682362  0.65082188    -0.01800
C4710       C  0.83119984  0.12247704  0.65398991    -0.09800
C4711       C  0.82337866  0.11862185  0.66035476    -0.18600
C4712       C  0.82300516  0.14917216  0.66379810     0.03800
C4713       C  0.83264151  0.18458914  0.66062383     0.17900
C4714       C  0.84045884  0.18806510  0.65422943    -0.20100
C4715       C  0.83383021  0.21621306  0.66382572    -0.21300
C4716       C  0.82566540  0.21351677  0.67012824    -0.19900
C4717       C  0.81580952  0.17901991  0.67339634     0.19300
C4718       C  0.81378524  0.14610836  0.67026879     0.01500
C4719       C  0.80282516  0.11173128  0.67377322    -0.14600
C4720       C  0.79678950  0.11102912  0.68016185    -0.12300
C4721       C  0.80085663  0.14424561  0.68329508     0.01000
C4722       C  0.80912953  0.17773286  0.67982075    -0.24500
H4723       H  0.82990534  0.09785176  0.65150860     0.09000
H4724       H  0.81739612  0.09122451  0.66243444     0.12600
H4725       H  0.84685318  0.21501579  0.65187351     0.11300
H4726       H  0.84124356  0.24333755  0.66143777     0.12500
H4727       H  0.82723260  0.23870860  0.67247071     0.11500
H4728       H  0.79939433  0.08511509  0.67173381     0.08600
H4729       H  0.79008450  0.08457244  0.68269264     0.11900
H4730       H  0.81242757  0.20368362  0.68216022     0.13700
C4731       C  0.60869935  0.02929251  0.56897385    -0.01800
C4732       C  0.62164863  0.06702791  0.57139734    -0.09800
C4733       C  0.64187951  0.07887702  0.57699869    -0.18600
C4734       C  0.65021845  0.05337408  0.58045252     0.03800
C4735       C  0.63746498  0.01517451  0.57799813     0.17900
C4736       C  0.61692327  0.00347837  0.57231034    -0.20100
C4737       C  0.64537648  0.98899320  0.58124250    -0.21300
C4738       C  0.66600397  0.00007218  0.58683040    -0.19900
C4739       C  0.67913144  0.03757314  0.58934990     0.19300
C4740       C  0.67104410  0.06460697  0.58622103     0.01500
C4741       C  0.68426842  0.10181241  0.58899904    -0.14600
C4742       C  0.70515751  0.11199633  0.59456598    -0.12300
C4743       C  0.71382728  0.08570029  0.59762079     0.01000
C4744       C  0.70043660  0.04830251  0.59497249    -0.24500
H4745       H  0.61613107  0.08789540  0.56895657     0.09000
H4746       H  0.65069070  0.10837564  0.57846975     0.12600
H4747       H  0.60726001  0.97424105  0.57050340     0.11300
H4748       H  0.63572989  0.95978315  0.57942914     0.12500
H4749       H  0.67181473  0.97915024  0.58919384     0.11500
H4750       H  0.67902220  0.12389801  0.58699945     0.08600
H4751       H  0.71483309  0.14100359  0.59645939     0.11900
H4752       H  0.70654230  0.02742503  0.59728497     0.13700
loop_ 
_geom_bond_atom_site_label_1 
_geom_bond_atom_site_label_2 
_geom_bond_distance 
_geom_bond_site_symmetry_2 
_ccdc_geom_bond_type 
Zr1           O2   2.440       .  S
Zr1           O3   2.407       .  S
Zr1           O4   2.441       .  S
Zr1           O7   2.448       .  S
Zr1           O9   2.385       .  S
Zr1          O10   2.389       .  S
Zr1          O11   2.402       .  S
Zr1          O12   2.395       .  S
O2           H58   0.990       .  S
O2           H66   0.990       .  S
O3           C23   1.280       .  A
O4           C25   1.287       .  A
O5          Zr15   2.407       .  S
O5           C24   1.281       .  A
O6          Zr14   2.444       .  S
O6           C25   1.287       .  A
O7           C24   1.288       .  A
O8          Zr16   2.436       .  S
O8           C23   1.286       .  A
O9          Zr14   2.392       .  S
O9          Zr16   2.368       .  S
O10         Zr15   2.390       .  S
O10         Zr16   2.379       .  S
O10          H45   0.966       .  S
O11         Zr14   2.400       .  S
O11         Zr31   2.397       .  S
O11          H48   0.966       .  S
O12         Zr15   2.389       .  S
O12         Zr31   2.378       .  S
Zr13         O38   2.443       .  S
Zr13         O32   2.457       .  S
Zr13         O40   2.457       .  S
Zr13         O28   2.415       .  S
Zr13         O19   2.388       .  S
Zr13         O20   2.425       .  S
Zr13         O21   2.386       .  S
Zr13         O22   2.382       .  S
Zr14         O33   2.434       .  S
Zr14         O26   2.435       .  S
Zr14         O27   2.441       .  S
Zr14         O20   2.402       .  S
Zr14         O21   2.392       .  S
Zr15         O17   2.436       .  S
Zr15         O39   2.438       .  S
Zr15         O41   2.428       .  S
Zr15         O19   2.371       .  S
Zr15         O22   2.389       .  S
Zr16         O42   2.435       .  S
Zr16         O43   2.435       .  S
Zr16         O18   2.436       .  S
Zr16         O19   2.383       .  S
Zr16         O20   2.406       .  S
O17          H54   0.990       .  S
O18          H49   0.990       .  S
O18          H63   0.990       .  S
O20          H46   0.965       .  S
O21         Zr31   2.382       .  S
O22         Zr31   2.396       .  S
O22          H47   0.967       .  S
C23        C4633   1.479       .  S
C24        C4665   1.484       .  S
C25        C4743   1.494       .  S
O26          H62   0.990       .  S
O27          C29   1.287       .  A
O28          C29   1.279       .  A
C29        C4687   1.481   1_545  S
O30         Zr31   2.440       .  S
O30          H59   0.990       .  S
Zr31         O34   2.437       .  S
Zr31         O35   2.440       .  S
Zr31         O36   2.390       .  S
O32          C37   1.287       .  A
O33          H50   0.990       .  S
O33          H65   0.990       .  S
O34          H51   0.990       .  S
O35          H55   0.990       .  S
O35          H64   0.990       .  S
O36          C37   1.277       .  A
C37        C4643   1.484       .  S
O38          H57   0.991       .  S
O38          H61   0.990       .  S
O39          H53   0.990       .  S
O39          H60   0.990       .  S
O40          C44   1.289       .  A
O41          C44   1.284       .  A
O42          H52   0.990       .  S
O43          H56   0.990       .  S
C44        C4709   1.490       .  S
Zr67         O68   2.441       .  S
Zr67         O69   2.455       .  S
Zr67         O70   2.462       .  S
Zr67         O73   2.423       .  S
Zr67         O75   2.381       .  S
Zr67         O76   2.390       .  S
Zr67         O77   2.413       .  S
Zr67         O78   2.418       .  S
O68         H124   0.990       .  S
O68         H132   0.990       .  S
O69          C89   1.287       .  A
O70          C91   1.289       .  A
O71         Zr81   2.448       .  S
O71          C90   1.288       .  A
O72         Zr80   2.426       .  S
O72          C91   1.283       .  A
O73          C90   1.283       .  A
O74         Zr82   2.396       .  S
O74          C89   1.279       .  A
O75         Zr80   2.391       .  S
O75         Zr82   2.389       .  S
O76         Zr81   2.394       .  S
O76         Zr82   2.374       .  S
O76         H111   0.964       .  S
O77         Zr80   2.400       .  S
O77         Zr97   2.384       .  S
O77         H114   0.960       .  S
O78         Zr81   2.395       .  S
O78         Zr97   2.405       .  S
Zr79        O104   2.442       .  S
Zr79         O98   2.421       .  S
Zr79        O106   2.419       .  S
Zr79         O94   2.437       .  S
Zr79         O85   2.403       .  S
Zr79         O86   2.398       .  S
Zr79         O87   2.376       .  S
Zr79         O88   2.386       .  S
Zr80         O99   2.436       .  S
Zr80         O92   2.434       .  S
Zr80         O93   2.417       .  S
Zr80         O86   2.395       .  S
Zr80         O87   2.384       .  S
Zr81         O83   2.434       .  S
Zr81        O105   2.436       .  S
Zr81        O107   2.450       .  S
Zr81         O85   2.395       .  S
Zr81         O88   2.392       .  S
Zr82        O108   2.437       .  S
Zr82        O109   2.438       .  S
Zr82         O84   2.437       .  S
Zr82         O85   2.391       .  S
Zr82         O86   2.383       .  S
O83         H120   0.990       .  S
O84         H115   0.990       .  S
O84         H129   0.990       .  S
O86         H112   0.963       .  S
O87         Zr97   2.372       .  S
O88         Zr97   2.361       .  S
O88         H113   0.952       .  S
C89        C4577   1.485       .  S
C90        C4533   1.487       .  S
C91        C4721   1.489       .  S
O92         H128   0.990       .  S
O93          C95   1.284       .  A
O94          C95   1.285       .  A
C95        C4523   1.483       .  S
O96         Zr97   2.438       .  S
O96         H125   0.990       .  S
Zr97        O100   2.437       .  S
Zr97        O101   2.442       .  S
Zr97        O102   2.435       .  S
O98         C103   1.283       .  A
O99         H116   0.990       .  S
O99         H131   0.990       .  S
O100        H117   0.990       .  S
O101        H121   0.990       .  S
O101        H130   0.989       .  S
O102        C103   1.285       .  A
C103       C4555   1.483   1_655  S
O104        H123   0.990       .  S
O104        H127   0.990       .  S
O105        H119   0.990       .  S
O105        H126   0.990       .  S
O106        C110   1.284       .  A
O107        C110   1.289       .  A
O108        H118   0.990       .  S
O109        H122   0.990       .  S
C110       C4599   1.486       .  S
Zr133       O134   2.438       .  S
Zr133       O135   2.408       .  S
Zr133       O136   2.445       .  S
Zr133       O139   2.429       .  S
Zr133       O141   2.378       .  S
Zr133       O142   2.387       .  S
Zr133       O143   2.397       .  S
Zr133       O144   2.392       .  S
O134        H190   0.990       .  S
O134        H198   0.990       .  S
O135        C155   1.280       .  A
O136        C157   1.288       .  A
O137       Zr147   2.418       .  S
O137        C156   1.283       .  A
O138       Zr146   2.442       .  S
O138        C157   1.288       .  A
O139        C156   1.285       .  A
O140       Zr148   2.428       .  S
O140        C155   1.284       .  A
O141       Zr146   2.387       .  S
O141       Zr148   2.365       .  S
O142       Zr147   2.389       .  S
O142       Zr148   2.375       .  S
O142        H177   0.966       .  S
O143       Zr146   2.395       .  S
O143       Zr163   2.394       .  S
O143        H180   0.966       .  S
O144       Zr147   2.389       .  S
O144       Zr163   2.378       .  S
Zr145       O170   2.443       .  S
Zr145       O164   2.459       .  S
Zr145       O172   2.453       .  S
Zr145       O160   2.417       .  S
Zr145       O151   2.390       .  S
Zr145       O152   2.423       .  S
Zr145       O153   2.382       .  S
Zr145       O154   2.380       .  S
Zr146       O165   2.436       .  S
Zr146       O158   2.435       .  S
Zr146       O159   2.433       .  S
Zr146       O152   2.403       .  S
Zr146       O153   2.395       .  S
Zr147       O149   2.436       .  S
Zr147       O171   2.438       .  S
Zr147       O173   2.439       .  S
Zr147       O151   2.377       .  S
Zr147       O154   2.388       .  S
Zr148       O174   2.434       .  S
Zr148       O175   2.435       .  S
Zr148       O150   2.436       .  S
Zr148       O151   2.386       .  S
Zr148       O152   2.406       .  S
O149        H186   0.990       .  S
O150        H181   0.990       .  S
O150        H195   0.990       .  S
O152        H178   0.964       .  S
O153       Zr163   2.377       .  S
O154       Zr163   2.396       .  S
O154        H179   0.967       .  S
C155       C4677   1.478       .  S
C156       C4445   1.474       .  S
C157       C4489   1.496       .  S
O158        H194   0.990       .  S
O159        C161   1.286       .  A
O160        C161   1.280       .  A
C161       C4435   1.481   1_655  S
O162       Zr163   2.438       .  S
O162        H191   0.990       .  S
Zr163       O166   2.438       .  S
Zr163       O167   2.438       .  S
Zr163       O168   2.392       .  S
O164        C169   1.288       .  A
O165        H182   0.990       .  S
O165        H197   0.990       .  S
O166        H183   0.990       .  S
O167        H187   0.990       .  S
O167        H196   0.990       .  S
O168        C169   1.277       .  A
C169       C4699   1.484       .  S
O170        H189   0.991       .  S
O170        H193   0.990       .  S
O171        H185   0.990       .  S
O171        H192   0.990       .  S
O172        C176   1.288       .  A
O173        C176   1.286       .  A
O174        H184   0.990       .  S
O175        H188   0.990       .  S
C176       C4467   1.492       .  S
Zr199       O200   2.440       .  S
Zr199       O201   2.450       .  S
Zr199       O202   2.464       .  S
Zr199       O205   2.418       .  S
Zr199       O207   2.384       .  S
Zr199       O208   2.385       .  S
Zr199       O209   2.404       .  S
Zr199       O210   2.410       .  S
O200        H256   0.990       .  S
O200        H264   0.990       .  S
O201        C221   1.288       .  A
O202        C223   1.291       .  A
O203       Zr213   2.426       .  S
O203        C222   1.285       .  A
O204       Zr212   2.431       .  S
O204        C223   1.285       .  A
O205        C222   1.283       .  A
O206       Zr214   2.411       .  S
O206        C221   1.281       .  A
O207       Zr212   2.391       .  S
O207       Zr214   2.385       .  S
O208       Zr213   2.389       .  S
O208       Zr214   2.368       .  S
O208        H243   0.966       .  S
O209       Zr212   2.396       .  S
O209       Zr229   2.378       .  S
O209        H246   0.965       .  S
O210       Zr213   2.391       .  S
O210       Zr229   2.393       .  S
Zr211       O236   2.441       .  S
Zr211       O230   2.422       .  S
Zr211       O238   2.434       .  S
Zr211       O226   2.427       .  S
Zr211       O217   2.396       .  S
Zr211       O218   2.404       .  S
Zr211       O219   2.380       .  S
Zr211       O220   2.382       .  S
Zr212       O231   2.437       .  S
Zr212       O224   2.436       .  S
Zr212       O225   2.421       .  S
Zr212       O218   2.393       .  S
Zr212       O219   2.382       .  S
Zr213       O215   2.435       .  S
Zr213       O237   2.433       .  S
Zr213       O239   2.432       .  S
Zr213       O217   2.393       .  S
Zr213       O220   2.383       .  S
Zr214       O240   2.435       .  S
Zr214       O241   2.435       .  S
Zr214       O216   2.438       .  S
Zr214       O217   2.401       .  S
Zr214       O218   2.383       .  S
O215        H252   0.990       .  S
O216        H247   0.990       .  S
O216        H261   0.990       .  S
O218        H244   0.967       .  S
O219       Zr229   2.369       .  S
O220       Zr229   2.365       .  S
O220        H245   0.965       .  S
C221       C4545   1.488       .  S
C222       C4357   1.477       .  S
C223       C4479   1.492       .  S
O224        H260   0.990       .  S
O225        C227   1.284       .  A
O226        C227   1.284       .  A
C227       C4391   1.480       .  S
O228       Zr229   2.439       .  S
O228        H257   0.990       .  S
Zr229       O232   2.438       .  S
Zr229       O233   2.438       .  S
Zr229       O234   2.419       .  S
O230        C235   1.283       .  A
O231        H248   0.990       .  S
O231        H263   0.990       .  S
O232        H249   0.990       .  S
O233        H253   0.990       .  S
O233        H262   0.990       .  S
O234        C235   1.284       .  A
C235       C4511   1.480       .  S
O236        H255   0.990       .  S
O236        H259   0.990       .  S
O237        H251   0.990       .  S
O237        H258   0.990       .  S
O238        C242   1.287       .  A
O239        C242   1.285       .  A
O240        H250   0.990       .  S
O241        H254   0.990       .  S
C242       C4401   1.486       .  S
Zr265       O266   2.439       .  S
Zr265       O267   2.415       .  S
Zr265       O268   2.427       .  S
Zr265       O271   2.432       .  S
Zr265       O273   2.382       .  S
Zr265       O274   2.383       .  S
Zr265       O275   2.400       .  S
Zr265       O276   2.391       .  S
O266        H322   0.990       .  S
O266        H330   0.990       .  S
O267        C287   1.281       .  A
O268        C289   1.285       .  A
O269       Zr279   2.408       .  S
O269        C288   1.281       .  A
O270       Zr278   2.443       .  S
O270        C289   1.288       .  A
O271        C288   1.285       .  A
O272       Zr280   2.434       .  S
O272        C287   1.285       .  A
O273       Zr278   2.392       .  S
O273       Zr280   2.362       .  S
O274       Zr279   2.390       .  S
O274       Zr280   2.381       .  S
O274        H309   0.967       .  S
O275       Zr278   2.401       .  S
O275       Zr295   2.385       .  S
O275        H312   0.964       .  S
O276       Zr279   2.389       .  S
O276       Zr295   2.379       .  S
Zr277       O302   2.443       .  S
Zr277       O296   2.467       .  S
Zr277       O304   2.465       .  S
Zr277       O292   2.423       .  S
Zr277       O283   2.388       .  S
Zr277       O284   2.427       .  S
Zr277       O285   2.387       .  S
Zr277       O286   2.389       .  S
Zr278       O297   2.434       .  S
Zr278       O290   2.436       .  S
Zr278       O291   2.440       .  S
Zr278       O284   2.401       .  S
Zr278       O285   2.392       .  S
Zr279       O281   2.435       .  S
Zr279       O303   2.439       .  S
Zr279       O305   2.418       .  S
Zr279       O283   2.374       .  S
Zr279       O286   2.391       .  S
Zr280       O306   2.436       .  S
Zr280       O307   2.435       .  S
Zr280       O282   2.438       .  S
Zr280       O283   2.384       .  S
Zr280       O284   2.410       .  S
O281        H318   0.990       .  S
O282        H313   0.990       .  S
O282        H327   0.990       .  S
O284        H310   0.966       .  S
O285       Zr295   2.377       .  S
O286       Zr295   2.397       .  S
O286        H311   0.966       .  S
C287       C4457   1.480       .  S
C288       C4621   1.473       .  S
C289       C4335   1.489       .  S
O290        H326   0.990       .  S
O291        C293   1.286       .  A
O292        C293   1.281       .  A
C293       C4655   1.485       .  S
O294       Zr295   2.436       .  S
O294        H323   0.990       .  S
Zr295       O298   2.437       .  S
Zr295       O299   2.438       .  S
Zr295       O300   2.376       .  S
O296        C301   1.289       .  A
O297        H314   0.990       .  S
O297        H329   0.990       .  S
O298        H315   0.990       .  S
O299        H319   0.990       .  S
O299        H328   0.990       .  S
O300        C301   1.274       .  A
C301       C4423   1.485       .  S
O302        H321   0.991       .  S
O302        H325   0.990       .  S
O303        H317   0.990       .  S
O303        H324   0.990       .  S
O304        C308   1.289       .  A
O305        C308   1.283       .  A
O306        H316   0.990       .  S
O307        H320   0.990       .  S
C308       C4313   1.490       .  S
Zr331       O332   2.444       .  S
Zr331       O333   2.450       .  S
Zr331       O334   2.462       .  S
Zr331       O337   2.427       .  S
Zr331       O339   2.382       .  S
Zr331       O340   2.390       .  S
Zr331       O341   2.409       .  S
Zr331       O342   2.413       .  S
O332        H388   0.990       .  S
O332        H396   0.991       .  S
O333        C353   1.285       .  A
O334        C355   1.289       .  A
O335       Zr345   2.435       .  S
O335        C354   1.286       .  A
O336       Zr344   2.426       .  S
O336        C355   1.282       .  A
O337        C354   1.283       .  A
O338       Zr346   2.396       .  S
O338        C353   1.278       .  A
O339       Zr344   2.399       .  S
O339       Zr346   2.391       .  S
O340       Zr345   2.399       .  S
O340       Zr346   2.376       .  S
O340        H375   0.967       .  S
O341       Zr344   2.396       .  S
O341       Zr361   2.385       .  S
O341        H378   0.965       .  S
O342       Zr345   2.398       .  S
O342       Zr361   2.398       .  S
Zr343       O368   2.441       .  S
Zr343       O362   2.414       .  S
Zr343       O370   2.446       .  S
Zr343       O358   2.446       .  S
Zr343       O349   2.395       .  S
Zr343       O350   2.401       .  S
Zr343       O351   2.380       .  S
Zr343       O352   2.386       .  S
Zr344       O363   2.438       .  S
Zr344       O356   2.436       .  S
Zr344       O357   2.415       .  S
Zr344       O350   2.403       .  S
Zr344       O351   2.384       .  S
Zr345       O347   2.436       .  S
Zr345       O369   2.438       .  S
Zr345       O371   2.445       .  S
Zr345       O349   2.396       .  S
Zr345       O352   2.389       .  S
Zr346       O372   2.437       .  S
Zr346       O373   2.436       .  S
Zr346       O348   2.436       .  S
Zr346       O349   2.390       .  S
Zr346       O350   2.385       .  S
O347        H384   0.990       .  S
O348        H379   0.990       .  S
O348        H393   0.990       .  S
O350        H376   0.966       .  S
O351       Zr361   2.370       .  S
O352       Zr361   2.366       .  S
O352        H377   0.965       .  S
C353       C4369   1.484       .  S
C354       C4589   1.482       .  S
C355       C4325   1.492       .  S
O356        H392   0.990       .  S
O357        C359   1.283       .  A
O358        C359   1.288       .  A
C359       C4567   1.484       .  S
O360       Zr361   2.438       .  S
O360        H389   0.991       .  S
Zr361       O364   2.437       .  S
Zr361       O365   2.436       .  S
Zr361       O366   2.428       .  S
O362        C367   1.282       .  A
O363        H380   0.990       .  S
O363        H395   0.990       .  S
O364        H381   0.990       .  S
O365        H385   0.990       .  S
O365        H394   0.990       .  S
O366        C367   1.284       .  A
C367       C4379   1.479   1_545  S
O368        H387   0.990       .  S
O368        H391   0.990       .  S
O369        H383   0.990       .  S
O369        H390   0.990       .  S
O370        C374   1.289       .  A
O371        C374   1.288       .  A
O372        H382   0.990       .  S
O373        H386   0.990       .  S
C374       C4303   1.494       .  S
Zr397       O398   2.439       .  S
Zr397       O399   2.421       .  S
Zr397       O400   2.438       .  S
Zr397       O403   2.437       .  S
Zr397       O405   2.380       .  S
Zr397       O406   2.387       .  S
Zr397       O407   2.399       .  S
Zr397       O408   2.392       .  S
O398        H454   0.990       .  S
O398        H462   0.990       .  S
O399        C419   1.283       .  A
O400        C421   1.286       .  A
O401       Zr411   2.416       .  S
O401        C420   1.282       .  A
O402       Zr410   2.444       .  S
O402        C421   1.287       .  A
O403        C420   1.286       .  A
O404       Zr412   2.429       .  S
O404        C419   1.285       .  A
O405       Zr410   2.386       .  S
O405       Zr412   2.366       .  S
O406       Zr411   2.387       .  S
O406       Zr412   2.382       .  S
O406        H441   0.966       .  S
O407       Zr410   2.400       .  S
O407       Zr427   2.396       .  S
O407        H444   0.965       .  S
O408       Zr411   2.385       .  S
O408       Zr427   2.381       .  S
Zr409       O434   2.442       .  S
Zr409       O428   2.458       .  S
Zr409       O436   2.457       .  S
Zr409       O424   2.430       .  S
Zr409       O415   2.391       .  S
Zr409       O416   2.419       .  S
Zr409       O417   2.381       .  S
Zr409       O418   2.382       .  S
Zr410       O429   2.437       .  S
Zr410       O422   2.437       .  S
Zr410       O423   2.426       .  S
Zr410       O416   2.399       .  S
Zr410       O417   2.396       .  S
Zr411       O413   2.436       .  S
Zr411       O435   2.441       .  S
Zr411       O437   2.423       .  S
Zr411       O415   2.380       .  S
Zr411       O418   2.390       .  S
Zr412       O438   2.434       .  S
Zr412       O439   2.436       .  S
Zr412       O414   2.438       .  S
Zr412       O415   2.384       .  S
Zr412       O416   2.404       .  S
O413        H450   0.990       .  S
O414        H445   0.990       .  S
O414        H459   0.990       .  S
O416        H442   0.966       .  S
O417       Zr427   2.373       .  S
O418       Zr427   2.391       .  S
O418        H443   0.967       .  S
C419       C4225   1.481       .  S
C420       C4281   1.484       .  S
C421       C4171   1.492       .  S
O422        H458   0.990       .  S
O423        C425   1.285       .  A
O424        C425   1.283       .  A
C425       C4247   1.482       .  S
O426       Zr427   2.433       .  S
O426        H455   0.990       .  S
Zr427       O430   2.435       .  S
Zr427       O431   2.438       .  S
Zr427       O432   2.397       .  S
O428        C433   1.288       .  A
O429        H446   0.990       .  S
O429        H461   0.990       .  S
O430        H447   0.990       .  S
O431        H451   0.990       .  S
O431        H460   0.990       .  S
O432        C433   1.278       .  A
C433       C4215   1.486       .  S
O434        H453   0.991       .  S
O434        H457   0.990       .  S
O435        H449   0.990       .  S
O435        H456   0.990       .  S
O436        C440   1.289       .  A
O437        C440   1.284       .  A
O438        H448   0.990       .  S
O439        H452   0.990       .  S
C440       C4181   1.488       .  S
Zr463       O464   2.442       .  S
Zr463       O465   2.455       .  S
Zr463       O466   2.457       .  S
Zr463       O469   2.411       .  S
Zr463       O471   2.374       .  S
Zr463       O472   2.389       .  S
Zr463       O473   2.408       .  S
Zr463       O474   2.415       .  S
O464        H520   0.990       .  S
O464        H528   0.991       .  S
O465        C485   1.287       .  A
O466        C487   1.288       .  A
O467       Zr477   2.437       .  S
O467        C486   1.286       .  A
O468       Zr476   2.423       .  S
O468        C487   1.282       .  A
O469        C486   1.281       .  A
O470       Zr478   2.398       .  S
O470        C485   1.278       .  A
O471       Zr476   2.395       .  S
O471       Zr478   2.390       .  S
O472       Zr477   2.397       .  S
O472       Zr478   2.374       .  S
O472        H507   0.966       .  S
O473       Zr476   2.398       .  S
O473       Zr493   2.385       .  S
O473        H510   0.964       .  S
O474       Zr477   2.395       .  S
O474       Zr493   2.398       .  S
Zr475       O500   2.442       .  S
Zr475       O494   2.406       .  S
Zr475       O502   2.424       .  S
Zr475       O490   2.441       .  S
Zr475       O481   2.399       .  S
Zr475       O482   2.393       .  S
Zr475       O483   2.378       .  S
Zr475       O484   2.387       .  S
Zr476       O495   2.439       .  S
Zr476       O488   2.434       .  S
Zr476       O489   2.422       .  S
Zr476       O482   2.392       .  S
Zr476       O483   2.387       .  S
Zr477       O479   2.435       .  S
Zr477       O501   2.437       .  S
Zr477       O503   2.450       .  S
Zr477       O481   2.396       .  S
Zr477       O484   2.387       .  S
Zr478       O504   2.435       .  S
Zr478       O505   2.435       .  S
Zr478       O480   2.437       .  S
Zr478       O481   2.394       .  S
Zr478       O482   2.375       .  S
O479        H516   0.990       .  S
O480        H511   0.990       .  S
O480        H525   0.990       .  S
O482        H508   0.966       .  S
O483       Zr493   2.376       .  S
O484       Zr493   2.362       .  S
O484        H509   0.966       .  S
C485       C4115   1.484       .  S
C486       C4105   1.479       .  S
C487       C4193   1.488       .  S
O488        H524   0.990       .  S
O489        C491   1.285       .  A
O490        C491   1.287       .  A
C491       C4071   1.484       .  S
O492       Zr493   2.438       .  S
O492        H521   0.990       .  S
Zr493       O496   2.436       .  S
Zr493       O497   2.440       .  S
Zr493       O498   2.430       .  S
O494        C499   1.280       .  A
O495        H512   0.990       .  S
O495        H527   0.990       .  S
O496        H513   0.990       .  S
O497        H517   0.990       .  S
O497        H526   0.990       .  S
O498        C499   1.284       .  A
C499       C4149   1.473   1_455  S
O500        H519   0.990       .  S
O500        H523   0.990       .  S
O501        H515   0.990       .  S
O501        H522   0.990       .  S
O502        C506   1.285       .  A
O503        C506   1.288       .  A
O504        H514   0.990       .  S
O505        H518   0.990       .  S
C506       C4611   1.488       .  S
Zr529       O530   2.439       .  S
Zr529       O531   2.420       .  S
Zr529       O532   2.438       .  S
Zr529       O535   2.443       .  S
Zr529       O537   2.377       .  S
Zr529       O538   2.381       .  S
Zr529       O539   2.398       .  S
Zr529       O540   2.389       .  S
O530        H586   0.990       .  S
O530        H594   0.990       .  S
O531        C551   1.283       .  A
O532        C553   1.287       .  A
O533       Zr543   2.399       .  S
O533        C552   1.279       .  A
O534       Zr542   2.435       .  S
O534        C553   1.286       .  A
O535        C552   1.287       .  A
O536       Zr544   2.436       .  S
O536        C551   1.285       .  A
O537       Zr542   2.389       .  S
O537       Zr544   2.362       .  S
O538       Zr543   2.389       .  S
O538       Zr544   2.377       .  S
O538        H573   0.967       .  S
O539       Zr542   2.398       .  S
O539       Zr559   2.390       .  S
O539        H576   0.965       .  S
O540       Zr543   2.390       .  S
O540       Zr559   2.378       .  S
Zr541       O566   2.441       .  S
Zr541       O560   2.456       .  S
Zr541       O568   2.459       .  S
Zr541       O556   2.424       .  S
Zr541       O547   2.389       .  S
Zr541       O548   2.423       .  S
Zr541       O549   2.383       .  S
Zr541       O550   2.380       .  S
Zr542       O561   2.435       .  S
Zr542       O554   2.435       .  S
Zr542       O555   2.431       .  S
Zr542       O548   2.401       .  S
Zr542       O549   2.392       .  S
Zr543       O545   2.437       .  S
Zr543       O567   2.439       .  S
Zr543       O569   2.433       .  S
Zr543       O547   2.373       .  S
Zr543       O550   2.383       .  S
Zr544       O570   2.434       .  S
Zr544       O571   2.435       .  S
Zr544       O546   2.437       .  S
Zr544       O547   2.388       .  S
Zr544       O548   2.410       .  S
O545        H582   0.990       .  S
O546        H577   0.990       .  S
O546        H591   0.990       .  S
O548        H574   0.966       .  S
O549       Zr559   2.377       .  S
O550       Zr559   2.396       .  S
O550        H575   0.962       .  S
C551       C4005   1.484       .  S
C552       C4237   1.476       .  S
C553       C3995   1.490       .  S
O554        H590   0.990       .  S
O555        C557   1.285       .  A
O556        C557   1.282       .  A
C557       C4203   1.480       .  S
O558       Zr559   2.439       .  S
O558        H587   0.991       .  S
Zr559       O562   2.438       .  S
Zr559       O563   2.438       .  S
Zr559       O564   2.387       .  S
O560        C565   1.287       .  A
O561        H578   0.990       .  S
O561        H593   0.990       .  S
O562        H579   0.990       .  S
O563        H583   0.990       .  S
O563        H592   0.990       .  S
O564        C565   1.277       .  A
C565       C4027   1.476       .  S
O566        H585   0.990       .  S
O566        H589   0.990       .  S
O567        H581   0.990       .  S
O567        H588   0.990       .  S
O568        C572   1.289       .  A
O569        C572   1.286       .  A
O570        H580   0.990       .  S
O571        H584   0.990       .  S
C572       C4049   1.493       .  S
Zr595       O596   2.440       .  S
Zr595       O597   2.447       .  S
Zr595       O598   2.457       .  S
Zr595       O601   2.413       .  S
Zr595       O603   2.378       .  S
Zr595       O604   2.386       .  S
Zr595       O605   2.406       .  S
Zr595       O606   2.414       .  S
O596        H652   0.990       .  S
O596        H660   0.990       .  S
O597        C617   1.286       .  A
O598        C619   1.289       .  A
O599       Zr609   2.432       .  S
O599        C618   1.286       .  A
O600       Zr608   2.427       .  S
O600        C619   1.283       .  A
O601        C618   1.281       .  A
O602       Zr610   2.408       .  S
O602        C617   1.281       .  A
O603       Zr608   2.390       .  S
O603       Zr610   2.388       .  S
O604       Zr609   2.389       .  S
O604       Zr610   2.367       .  S
O604        H639   0.966       .  S
O605       Zr608   2.399       .  S
O605       Zr625   2.383       .  S
O605        H642   0.965       .  S
O606       Zr609   2.396       .  S
O606       Zr625   2.401       .  S
Zr607       O632   2.441       .  S
Zr607       O626   2.411       .  S
Zr607       O634   2.433       .  S
Zr607       O622   2.436       .  S
Zr607       O613   2.394       .  S
Zr607       O614   2.396       .  S
Zr607       O615   2.380       .  S
Zr607       O616   2.383       .  S
Zr608       O627   2.439       .  S
Zr608       O620   2.435       .  S
Zr608       O621   2.414       .  S
Zr608       O614   2.394       .  S
Zr608       O615   2.390       .  S
Zr609       O611   2.436       .  S
Zr609       O633   2.437       .  S
Zr609       O635   2.439       .  S
Zr609       O613   2.393       .  S
Zr609       O616   2.388       .  S
Zr610       O636   2.436       .  S
Zr610       O637   2.434       .  S
Zr610       O612   2.437       .  S
Zr610       O613   2.394       .  S
Zr610       O614   2.384       .  S
O611        H648   0.990       .  S
O612        H643   0.990       .  S
O612        H657   0.990       .  S
O614        H640   0.966       .  S
O615       Zr625   2.374       .  S
O616       Zr625   2.361       .  S
O616        H641   0.965       .  S
C617       C3939   1.485       .  S
C618       C4127   1.476       .  S
C619       C4061   1.489       .  S
O620        H656   0.990       .  S
O621        C623   1.283       .  A
O622        C623   1.286       .  A
C623       C4137   1.478       .  S
O624       Zr625   2.439       .  S
O624        H653   0.990       .  S
Zr625       O628   2.436       .  S
Zr625       O629   2.440       .  S
Zr625       O630   2.437       .  S
O626        C631   1.281       .  A
O627        H644   0.990       .  S
O627        H659   0.990       .  S
O628        H645   0.990       .  S
O629        H649   0.990       .  S
O629        H658   0.989       .  S
O630        C631   1.286       .  A
C631       C3961   1.481       .  S
O632        H651   0.990       .  S
O632        H655   0.990       .  S
O633        H647   0.990       .  S
O633        H654   0.990       .  S
O634        C638   1.286       .  A
O635        C638   1.287       .  A
O636        H646   0.990       .  S
O637        H650   0.990       .  S
C638       C4413   1.487       .  S
Zr661       O662   2.438       .  S
Zr661       O663   2.410       .  S
Zr661       O664   2.427       .  S
Zr661       O667   2.438       .  S
Zr661       O669   2.379       .  S
Zr661       O670   2.380       .  S
Zr661       O671   2.399       .  S
Zr661       O672   2.390       .  S
O662        H718   0.990       .  S
O662        H726   0.990       .  S
O663        C683   1.280       .  A
O664        C685   1.285       .  A
O665       Zr675   2.416       .  S
O665        C684   1.282       .  A
O666       Zr674   2.442       .  S
O666        C685   1.287       .  A
O667        C684   1.287       .  A
O668       Zr676   2.426       .  S
O668        C683   1.284       .  A
O669       Zr674   2.387       .  S
O669       Zr676   2.365       .  S
O670       Zr675   2.391       .  S
O670       Zr676   2.380       .  S
O670        H705   0.967       .  S
O671       Zr674   2.395       .  S
O671       Zr691   2.394       .  S
O671        H708   0.965       .  S
O672       Zr675   2.381       .  S
O672       Zr691   2.380       .  S
Zr673       O698   2.443       .  S
Zr673       O692   2.458       .  S
Zr673       O700   2.463       .  S
Zr673       O688   2.420       .  S
Zr673       O679   2.387       .  S
Zr673       O680   2.424       .  S
Zr673       O681   2.387       .  S
Zr673       O682   2.384       .  S
Zr674       O693   2.435       .  S
Zr674       O686   2.435       .  S
Zr674       O687   2.428       .  S
Zr674       O680   2.404       .  S
Zr674       O681   2.393       .  S
Zr675       O677   2.435       .  S
Zr675       O699   2.439       .  S
Zr675       O701   2.420       .  S
Zr675       O679   2.376       .  S
Zr675       O682   2.387       .  S
Zr676       O702   2.434       .  S
Zr676       O703   2.436       .  S
Zr676       O678   2.437       .  S
Zr676       O679   2.380       .  S
Zr676       O680   2.403       .  S
O677        H714   0.990       .  S
O678        H709   0.990       .  S
O678        H723   0.990       .  S
O680        H706   0.965       .  S
O681       Zr691   2.378       .  S
O682       Zr691   2.391       .  S
O682        H707   0.966       .  S
C683       C4269   1.475       .  S
C684       C4017   1.484       .  S
C685       C3895   1.490       .  S
O686        H722   0.990       .  S
O687        C689   1.284       .  A
O688        C689   1.280       .  A
C689       C4039   1.474   1_455  S
O690       Zr691   2.438       .  S
O690        H719   0.990       .  S
Zr691       O694   2.436       .  S
Zr691       O695   2.437       .  S
Zr691       O696   2.396       .  S
O692        C697   1.288       .  A
O693        H710   0.990       .  S
O693        H725   0.990       .  S
O694        H711   0.990       .  S
O695        H715   0.990       .  S
O695        H724   0.990       .  S
O696        C697   1.278       .  A
C697       C4259   1.486       .  S
O698        H717   0.991       .  S
O698        H721   0.990       .  S
O699        H713   0.990       .  S
O699        H720   0.990       .  S
O700        C704   1.290       .  A
O701        C704   1.283       .  A
O702        H712   0.990       .  S
O703        H716   0.990       .  S
C704       C3917   1.487       .  S
Zr727       O728   2.442       .  S
Zr727       O729   2.451       .  S
Zr727       O730   2.453       .  S
Zr727       O733   2.411       .  S
Zr727       O735   2.378       .  S
Zr727       O736   2.389       .  S
Zr727       O737   2.407       .  S
Zr727       O738   2.415       .  S
O728        H784   0.990       .  S
O728        H792   0.990       .  S
O729        C749   1.287       .  A
O730        C751   1.287       .  A
O731       Zr741   2.434       .  S
O731        C750   1.286       .  A
O732       Zr740   2.419       .  S
O732        C751   1.282       .  A
O733        C750   1.280       .  A
O734       Zr742   2.395       .  S
O734        C749   1.277       .  A
O735       Zr740   2.392       .  S
O735       Zr742   2.388       .  S
O736       Zr741   2.394       .  S
O736       Zr742   2.376       .  S
O736        H771   0.967       .  S
O737       Zr740   2.400       .  S
O737       Zr757   2.387       .  S
O737        H774   0.965       .  S
O738       Zr741   2.398       .  S
O738       Zr757   2.403       .  S
Zr739       O764   2.438       .  S
Zr739       O758   2.409       .  S
Zr739       O766   2.432       .  S
Zr739       O754   2.444       .  S
Zr739       O745   2.399       .  S
Zr739       O746   2.397       .  S
Zr739       O747   2.379       .  S
Zr739       O748   2.384       .  S
Zr740       O759   2.437       .  S
Zr740       O752   2.436       .  S
Zr740       O753   2.411       .  S
Zr740       O746   2.392       .  S
Zr740       O747   2.387       .  S
Zr741       O743   2.436       .  S
Zr741       O765   2.438       .  S
Zr741       O767   2.451       .  S
Zr741       O745   2.392       .  S
Zr741       O748   2.387       .  S
Zr742       O768   2.435       .  S
Zr742       O769   2.436       .  S
Zr742       O744   2.437       .  S
Zr742       O745   2.395       .  S
Zr742       O746   2.377       .  S
O743        H780   0.990       .  S
O744        H775   0.990       .  S
O744        H789   0.990       .  S
O746        H772   0.964       .  S
O747       Zr757   2.370       .  S
O748       Zr757   2.361       .  S
O748        H773   0.966       .  S
C749       C4093   1.484       .  S
C750       C3951   1.481       .  S
C751       C3929   1.484       .  S
O752        H788   0.990       .  S
O753        C755   1.282       .  A
O754        C755   1.288       .  A
C755       C3973   1.482       .  S
O756       Zr757   2.439       .  S
O756        H785   0.991       .  S
Zr757       O760   2.437       .  S
Zr757       O761   2.440       .  S
Zr757       O762   2.438       .  S
O758        C763   1.281       .  A
O759        H776   0.990       .  S
O759        H791   0.990       .  S
O760        H777   0.990       .  S
O761        H781   0.990       .  S
O761        H790   0.990       .  S
O762        C763   1.286       .  A
C763       C4083   1.482   1_565  S
O764        H783   0.990       .  S
O764        H787   0.990       .  S
O765        H779   0.990       .  S
O765        H786   0.990       .  S
O766        C770   1.286       .  A
O767        C770   1.289       .  A
O768        H778   0.990       .  S
O769        H782   0.990       .  S
C770       C4291   1.493       .  S
Zr793       O794   2.440       .  S
Zr793       O795   2.417       .  S
Zr793       O796   2.431       .  S
Zr793       O799   2.441       .  S
Zr793       O801   2.382       .  S
Zr793       O802   2.384       .  S
Zr793       O803   2.401       .  S
Zr793       O804   2.391       .  S
O794        H850   0.990       .  S
O794        H858   0.990       .  S
O795        C815   1.282       .  A
O796        C817   1.285       .  A
O797       Zr807   2.413       .  S
O797        C816   1.282       .  A
O798       Zr806   2.437       .  S
O798        C817   1.286       .  A
O799        C816   1.287       .  A
O800       Zr808   2.436       .  S
O800        C815   1.285       .  A
O801       Zr806   2.390       .  S
O801       Zr808   2.365       .  S
O802       Zr807   2.391       .  S
O802       Zr808   2.381       .  S
O802        H837   0.966       .  S
O803       Zr806   2.398       .  S
O803       Zr823   2.396       .  S
O803        H840   0.966       .  S
O804       Zr807   2.385       .  S
O804       Zr823   2.382       .  S
Zr805       O830   2.443       .  S
Zr805       O824   2.458       .  S
Zr805       O832   2.457       .  S
Zr805       O820   2.428       .  S
Zr805       O811   2.393       .  S
Zr805       O812   2.426       .  S
Zr805       O813   2.383       .  S
Zr805       O814   2.384       .  S
Zr806       O825   2.433       .  S
Zr806       O818   2.434       .  S
Zr806       O819   2.437       .  S
Zr806       O812   2.402       .  S
Zr806       O813   2.393       .  S
Zr807       O809   2.437       .  S
Zr807       O831   2.441       .  S
Zr807       O833   2.421       .  S
Zr807       O811   2.381       .  S
Zr807       O814   2.388       .  S
Zr808       O834   2.435       .  S
Zr808       O835   2.435       .  S
Zr808       O810   2.437       .  S
Zr808       O811   2.386       .  S
Zr808       O812   2.409       .  S
O809        H846   0.990       .  S
O810        H841   0.990       .  S
O810        H855   0.990       .  S
O812        H838   0.965       .  S
O813       Zr823   2.377       .  S
O814       Zr823   2.391       .  S
O814        H839   0.964       .  S
C815       C3851   1.483       .  S
C816       C3819   1.483       .  S
C817       C4347   1.489       .  S
O818        H854   0.990       .  S
O819        C821   1.286       .  A
O820        C821   1.282       .  A
C821       C3785   1.485       .  S
O822       Zr823   2.439       .  S
O822        H851   0.990       .  S
Zr823       O826   2.438       .  S
Zr823       O827   2.439       .  S
Zr823       O828   2.396       .  S
O824        C829   1.286       .  A
O825        H842   0.990       .  S
O825        H857   0.990       .  S
O826        H843   0.990       .  S
O827        H847   0.990       .  S
O827        H856   0.990       .  S
O828        C829   1.279       .  A
C829       C3841   1.484       .  S
O830        H849   0.991       .  S
O830        H853   0.990       .  S
O831        H845   0.990       .  S
O831        H852   0.990       .  S
O832        C836   1.289       .  A
O833        C836   1.284       .  A
O834        H844   0.990       .  S
O835        H848   0.990       .  S
C836       C3873   1.487       .  S
Zr859       O860   2.440       .  S
Zr859       O861   2.448       .  S
Zr859       O862   2.455       .  S
Zr859       O865   2.415       .  S
Zr859       O867   2.379       .  S
Zr859       O868   2.387       .  S
Zr859       O869   2.406       .  S
Zr859       O870   2.413       .  S
O860        H916   0.990       .  S
O860        H924   0.990       .  S
O861        C881   1.287       .  A
O862        C883   1.289       .  A
O863       Zr873   2.426       .  S
O863        C882   1.283       .  A
O864       Zr872   2.413       .  S
O864        C883   1.281       .  A
O865        C882   1.282       .  A
O866       Zr874   2.419       .  S
O866        C881   1.282       .  A
O867       Zr872   2.392       .  S
O867       Zr874   2.383       .  S
O868       Zr873   2.396       .  S
O868       Zr874   2.376       .  S
O868        H903   0.966       .  S
O869       Zr872   2.399       .  S
O869       Zr889   2.384       .  S
O869        H906   0.965       .  S
O870       Zr873   2.394       .  S
O870       Zr889   2.400       .  S
Zr871       O896   2.438       .  S
Zr871       O890   2.407       .  S
Zr871       O898   2.427       .  S
Zr871       O886   2.451       .  S
Zr871       O877   2.403       .  S
Zr871       O878   2.395       .  S
Zr871       O879   2.376       .  S
Zr871       O880   2.388       .  S
Zr872       O891   2.438       .  S
Zr872       O884   2.435       .  S
Zr872       O885   2.411       .  S
Zr872       O878   2.390       .  S
Zr872       O879   2.383       .  S
Zr873       O875   2.436       .  S
Zr873       O897   2.438       .  S
Zr873       O899   2.438       .  S
Zr873       O877   2.394       .  S
Zr873       O880   2.387       .  S
Zr874       O900   2.434       .  S
Zr874       O901   2.435       .  S
Zr874       O876   2.436       .  S
Zr874       O877   2.401       .  S
Zr874       O878   2.384       .  S
O875        H912   0.990       .  S
O876        H907   0.990       .  S
O876        H921   0.990       .  S
O878        H904   0.965       .  S
O879       Zr889   2.372       .  S
O880       Zr889   2.365       .  S
O880        H905   0.965       .  S
C881       C3731   1.487       .  S
C882       C3675   1.476       .  S
C883       C3885   1.484       .  S
O884        H920   0.990       .  S
O885        C887   1.282       .  A
O886        C887   1.289       .  A
C887       C3697   1.485       .  S
O888       Zr889   2.439       .  S
O888        H917   0.990       .  S
Zr889       O892   2.436       .  S
Zr889       O893   2.441       .  S
Zr889       O894   2.428       .  S
O890        C895   1.280       .  A
O891        H908   0.990       .  S
O891        H923   0.990       .  S
O892        H909   0.990       .  S
O893        H913   0.990       .  S
O893        H922   0.990       .  S
O894        C895   1.285       .  A
C895       C3741   1.476       .  S
O896        H915   0.990       .  S
O896        H919   0.990       .  S
O897        H911   0.990       .  S
O897        H918   0.990       .  S
O898        C902   1.285       .  A
O899        C902   1.286       .  A
O900        H910   0.990       .  S
O901        H914   0.990       .  S
C902       C3763   1.486       .  S
Zr925       O926   2.438       .  S
Zr925       O927   2.420       .  S
Zr925       O928   2.423       .  S
Zr925       O931   2.429       .  S
Zr925       O933   2.380       .  S
Zr925       O934   2.376       .  S
Zr925       O935   2.399   1_545  S
Zr925       O936   2.390       .  S
O926        H982   0.990       .  S
O926        H990   0.990       .  S
O927        C947   1.282       .  A
O928        C949   1.284       .  A
O929       Zr939   2.418       .  S
O929        C948   1.283       .  A
O930       Zr938   2.444       .  S
O930        C949   1.287   1_565  A
O931        C948   1.285       .  A
O932       Zr940   2.434       .  S
O932        C947   1.285       .  A
O933       Zr938   2.390   1_545  S
O933       Zr940   2.364       .  S
O934       Zr939   2.388       .  S
O934       Zr940   2.379       .  S
O934        H969   0.965       .  S
O935       Zr938   2.403       .  S
O935       Zr955   2.399       .  S
O935        H972   0.965       .  S
O936       Zr939   2.387       .  S
O936       Zr955   2.381   1_545  S
Zr937       O962   2.442       .  S
Zr937       O956   2.451       .  S
Zr937       O964   2.464       .  S
Zr937       O952   2.435       .  S
Zr937       O943   2.388       .  S
Zr937       O944   2.424       .  S
Zr937       O945   2.383       .  S
Zr937       O946   2.384       .  S
Zr938       O957   2.435       .  S
Zr938       O950   2.436       .  S
Zr938       O951   2.433       .  S
Zr938       O944   2.405       .  S
Zr938       O945   2.395       .  S
Zr939       O941   2.437       .  S
Zr939       O963   2.440       .  S
Zr939       O965   2.417       .  S
Zr939       O943   2.381   1_545  S
Zr939       O946   2.393   1_545  S
Zr940       O966   2.435       .  S
Zr940       O967   2.436   1_545  S
Zr940       O942   2.437       .  S
Zr940       O943   2.384   1_545  S
Zr940       O944   2.410   1_545  S
O941        H978   0.990       .  S
O942        H973   0.990       .  S
O942        H987   0.990       .  S
O944        H970   0.966       .  S
O945       Zr955   2.377       .  S
O946       Zr955   2.389       .  S
O946        H971   0.966       .  S
C947       C3665   1.483       .  S
C948       C3863   1.480       .  S
C949       C4731   1.490       .  S
O950        H986   0.990       .  S
O951        C953   1.286       .  A
O952        C953   1.283       .  A
C953       C3829   1.485       .  S
O954       Zr955   2.440       .  S
O954        H983   0.991       .  S
Zr955       O958   2.437       .  S
Zr955       O959   2.442       .  S
Zr955       O960   2.391       .  S
O956        C961   1.285       .  A
O957        H974   0.990       .  S
O957        H989   0.990       .  S
O958        H975   0.990       .  S
O959        H979   0.990       .  S
O959        H988   0.990       .  S
O960        C961   1.277       .  A
C961       C3643   1.483       .  S
O962        H981   0.990       .  S
O962        H985   0.990       .  S
O963        H977   0.990       .  S
O963        H984   0.990       .  S
O964        C968   1.291       .  A
O965        C968   1.283   1_545  A
O966        H976   0.990       .  S
O967        H980   0.990       .  S
C968       C3609   1.489       .  S
Zr991       O992   2.443       .  S
Zr991       O993   2.442       .  S
Zr991       O994   2.464       .  S
Zr991       O997   2.430       .  S
Zr991       O999   2.380       .  S
Zr991      O1000   2.389       .  S
Zr991      O1001   2.404   1_545  S
Zr991      O1002   2.412       .  S
O992       H1048   0.990       .  S
O992       H1056   0.991       .  S
O993       C1013   1.286       .  A
O994       C1015   1.289       .  A
O995      Zr1005   2.441       .  S
O995       C1014   1.287       .  A
O996      Zr1004   2.416       .  S
O996       C1015   1.282   1_565  A
O997       C1014   1.285       .  A
O998      Zr1006   2.394       .  S
O998       C1013   1.278       .  A
O999      Zr1004   2.392   1_545  S
O999      Zr1006   2.384       .  S
O1000     Zr1005   2.393       .  S
O1000     Zr1006   2.376       .  S
O1000      H1035   0.966       .  S
O1001     Zr1004   2.398       .  S
O1001     Zr1021   2.386       .  S
O1001      H1038   0.965       .  S
O1002     Zr1005   2.396       .  S
O1002     Zr1021   2.394   1_545  S
Zr1003     O1028   2.443       .  S
Zr1003     O1022   2.413       .  S
Zr1003     O1030   2.418       .  S
Zr1003     O1018   2.431       .  S
Zr1003     O1009   2.399       .  S
Zr1003     O1010   2.396       .  S
Zr1003     O1011   2.380       .  S
Zr1003     O1012   2.384       .  S
Zr1004     O1023   2.437       .  S
Zr1004     O1016   2.434       .  S
Zr1004     O1017   2.420       .  S
Zr1004     O1010   2.393       .  S
Zr1004     O1011   2.383       .  S
Zr1005     O1007   2.435       .  S
Zr1005     O1029   2.433       .  S
Zr1005     O1031   2.456   1_545  S
Zr1005     O1009   2.394   1_545  S
Zr1005     O1012   2.385   1_545  S
Zr1006     O1032   2.435       .  S
Zr1006     O1033   2.433   1_545  S
Zr1006     O1008   2.436       .  S
Zr1006     O1009   2.394   1_545  S
Zr1006     O1010   2.376   1_545  S
O1007      H1044   0.990       .  S
O1008      H1039   0.990       .  S
O1008      H1053   0.990       .  S
O1010      H1036   0.966       .  S
O1011     Zr1021   2.375       .  S
O1012     Zr1021   2.361       .  S
O1012      H1037   0.964       .  S
C1013      C3577   1.480       .  S
C1014      C3719   1.483       .  S
C1015      C3621   1.490       .  S
O1016      H1052   0.990       .  S
O1017      C1019   1.284       .  A
O1018      C1019   1.285       .  A
C1019      C3753   1.480       .  S
O1020     Zr1021   2.438       .  S
O1020      H1049   0.990       .  S
Zr1021     O1024   2.438       .  S
Zr1021     O1025   2.440       .  S
Zr1021     O1026   2.424       .  S
O1022      C1027   1.281       .  A
O1023      H1040   0.990       .  S
O1023      H1055   0.990       .  S
O1024      H1041   0.990       .  S
O1025      H1045   0.990       .  S
O1025      H1054   0.990       .  S
O1026      C1027   1.284       .  A
C1027      C3555   1.474       .  S
O1028      H1047   0.990       .  S
O1028      H1051   0.990       .  S
O1029      H1043   0.990       .  S
O1029      H1050   0.990       .  S
O1030      C1034   1.284       .  A
O1031      C1034   1.290       .  A
O1032      H1042   0.990       .  S
O1033      H1046   0.989       .  S
C1034      C3587   1.489       .  S
Zr1057     O1058   2.439       .  S
Zr1057     O1059   2.418       .  S
Zr1057     O1060   2.439       .  S
Zr1057     O1063   2.450       .  S
Zr1057     O1065   2.385       .  S
Zr1057     O1066   2.385       .  S
Zr1057     O1067   2.403   1_655  S
Zr1057     O1068   2.387       .  S
O1058      H1114   0.990       .  S
O1058      H1122   0.990       .  S
O1059      C1079   1.282       .  A
O1060      C1081   1.287       .  A
O1061     Zr1071   2.405       .  S
O1061      C1080   1.281       .  A
O1062     Zr1070   2.454       .  S
O1062      C1081   1.290   1_455  A
O1063      C1080   1.289       .  A
O1064     Zr1072   2.423       .  S
O1064      C1079   1.284       .  A
O1065     Zr1070   2.386   1_655  S
O1065     Zr1072   2.362       .  S
O1066     Zr1071   2.388       .  S
O1066     Zr1072   2.380       .  S
O1066      H1101   0.965       .  S
O1067     Zr1070   2.398       .  S
O1067     Zr1087   2.397       .  S
O1067      H1104   0.965       .  S
O1068     Zr1071   2.387       .  S
O1068     Zr1087   2.375   1_655  S
Zr1069     O1094   2.442       .  S
Zr1069     O1088   2.469       .  S
Zr1069     O1096   2.468       .  S
Zr1069     O1084   2.422       .  S
Zr1069     O1075   2.392   1_455  S
Zr1069     O1076   2.430       .  S
Zr1069     O1077   2.386       .  S
Zr1069     O1078   2.375       .  S
Zr1070     O1089   2.434       .  S
Zr1070     O1082   2.437       .  S
Zr1070     O1083   2.442       .  S
Zr1070     O1076   2.405       .  S
Zr1070     O1077   2.397       .  S
Zr1071     O1073   2.435       .  S
Zr1071     O1095   2.442       .  S
Zr1071     O1097   2.417       .  S
Zr1071     O1075   2.379       .  S
Zr1071     O1078   2.392   1_655  S
Zr1072     O1098   2.436       .  S
Zr1072     O1099   2.435       .  S
Zr1072     O1074   2.438       .  S
Zr1072     O1075   2.387       .  S
Zr1072     O1076   2.405   1_655  S
O1073      H1110   0.990       .  S
O1074      H1105   0.990       .  S
O1074      H1119   0.990   1_655  S
O1076      H1102   0.965       .  S
O1077     Zr1087   2.376       .  S
O1078     Zr1087   2.393       .  S
O1078      H1103   0.967       .  S
C1079      C3807   1.478       .  S
C1080      C3653   1.477       .  S
C1081      C4501   1.498       .  S
O1082      H1118   0.990       .  S
O1083      C1085   1.287       .  A
O1084      C1085   1.281       .  A
C1085      C3631   1.483       .  S
O1086     Zr1087   2.437       .  S
O1086      H1115   0.990       .  S
Zr1087     O1090   2.437       .  S
Zr1087     O1091   2.438       .  S
Zr1087     O1092   2.396       .  S
O1088      C1093   1.289       .  A
O1089      H1106   0.990       .  S
O1089      H1121   0.990       .  S
O1090      H1107   0.990       .  S
O1091      H1111   0.990       .  S
O1091      H1120   0.990   1_455  S
O1092      C1093   1.278       .  A
C1093      C3797   1.492       .  S
O1094      H1113   0.991       .  S
O1094      H1117   0.990       .  S
O1095      H1109   0.990       .  S
O1095      H1116   0.990       .  S
O1096      C1100   1.292       .  A
O1097      C1100   1.282   1_655  A
O1098      H1108   0.990       .  S
O1099      H1112   0.990   1_655  S
C1100      C3521   1.491       .  S
Zr1123     O1124   2.444       .  S
Zr1123     O1125   2.445       .  S
Zr1123     O1126   2.461       .  S
Zr1123     O1129   2.424       .  S
Zr1123     O1131   2.384       .  S
Zr1123     O1132   2.391       .  S
Zr1123     O1133   2.409       .  S
Zr1123     O1134   2.415       .  S
O1124      H1180   0.990       .  S
O1124      H1188   0.991       .  S
O1125      C1145   1.286       .  A
O1126      C1147   1.288       .  A
O1127     Zr1137   2.436       .  S
O1127      C1146   1.286       .  A
O1128     Zr1136   2.430       .  S
O1128      C1147   1.284   1_455  A
O1129      C1146   1.284       .  A
O1130     Zr1138   2.396       .  S
O1130      C1145   1.278       .  A
O1131     Zr1136   2.388   1_655  S
O1131     Zr1138   2.390       .  S
O1132     Zr1137   2.393       .  S
O1132     Zr1138   2.374       .  S
O1132      H1167   0.966       .  S
O1133     Zr1136   2.398   1_655  S
O1133     Zr1153   2.380   1_655  S
O1133      H1170   0.964   1_655  S
O1134     Zr1137   2.401       .  S
O1134     Zr1153   2.398   1_655  S
Zr1135     O1160   2.445       .  S
Zr1135     O1154   2.409       .  S
Zr1135     O1162   2.435       .  S
Zr1135     O1150   2.438       .  S
Zr1135     O1141   2.396   1_455  S
Zr1135     O1142   2.401       .  S
Zr1135     O1143   2.383       .  S
Zr1135     O1144   2.387       .  S
Zr1136     O1155   2.439       .  S
Zr1136     O1148   2.434       .  S
Zr1136     O1149   2.413       .  S
Zr1136     O1142   2.394       .  S
Zr1136     O1143   2.386       .  S
Zr1137     O1139   2.435       .  S
Zr1137     O1161   2.434       .  S
Zr1137     O1163   2.457       .  S
Zr1137     O1141   2.389       .  S
Zr1137     O1144   2.388   1_655  S
Zr1138     O1164   2.436       .  S
Zr1138     O1165   2.436       .  S
Zr1138     O1140   2.436       .  S
Zr1138     O1141   2.392       .  S
Zr1138     O1142   2.381   1_655  S
O1139      H1176   0.990       .  S
O1140      H1171   0.990       .  S
O1140      H1185   0.990       .  S
O1142      H1168   0.966       .  S
O1143     Zr1153   2.374       .  S
O1144     Zr1153   2.369       .  S
O1144      H1169   0.963       .  S
C1145      C3687   1.481       .  S
C1146      C3565   1.484       .  S
C1147      C3533   1.491       .  S
O1148      H1184   0.990       .  S
O1149      C1151   1.282       .  A
O1150      C1151   1.285       .  A
C1151      C3543   1.481       .  S
O1152     Zr1153   2.440   1_655  S
O1152      H1181   0.990   1_655  S
Zr1153     O1156   2.437       .  S
Zr1153     O1157   2.438       .  S
Zr1153     O1158   2.429       .  S
O1154      C1159   1.281       .  A
O1155      H1172   0.990       .  S
O1155      H1187   0.990       .  S
O1156      H1173   0.990       .  S
O1157      H1177   0.990       .  S
O1157      H1186   0.990   1_455  S
O1158      C1159   1.285       .  A
C1159      C3709   1.480       .  S
O1160      H1179   0.990       .  S
O1160      H1183   0.990       .  S
O1161      H1175   0.990       .  S
O1161      H1182   0.990       .  S
O1162      C1166   1.285       .  A
O1163      C1166   1.291   1_655  A
O1164      H1174   0.990       .  S
O1165      H1178   0.990   1_655  S
C1166      C3511   1.496       .  S
Zr1189     O1190   2.436       .  S
Zr1189     O1191   2.410       .  S
Zr1189     O1192   2.426       .  S
Zr1189     O1195   2.441       .  S
Zr1189     O1197   2.382       .  S
Zr1189     O1198   2.379       .  S
Zr1189     O1199   2.398       .  S
Zr1189     O1200   2.387       .  S
O1190      H1246   0.990       .  S
O1190      H1254   0.990       .  S
O1191      C1211   1.281       .  A
O1192      C1213   1.285       .  A
O1193     Zr1203   2.414       .  S
O1193      C1212   1.282       .  A
O1194     Zr1202   2.446       .  S
O1194      C1213   1.288       .  A
O1195      C1212   1.287       .  A
O1196     Zr1204   2.430       .  S
O1196      C1211   1.285       .  A
O1197     Zr1202   2.386       .  S
O1197     Zr1204   2.362       .  S
O1198     Zr1203   2.388       .  S
O1198     Zr1204   2.380       .  S
O1198      H1233   0.967       .  S
O1199     Zr1202   2.397       .  S
O1199     Zr1219   2.384       .  S
O1199      H1236   0.965       .  S
O1200     Zr1203   2.387       .  S
O1200     Zr1219   2.378       .  S
Zr1201     O1226   2.442       .  S
Zr1201     O1220   2.463       .  S
Zr1201     O1228   2.474       .  S
Zr1201     O1216   2.427       .  S
Zr1201     O1207   2.388       .  S
Zr1201     O1208   2.427       .  S
Zr1201     O1209   2.391       .  S
Zr1201     O1210   2.383       .  S
Zr1202     O1221   2.437       .  S
Zr1202     O1214   2.436       .  S
Zr1202     O1215   2.431       .  S
Zr1202     O1208   2.403       .  S
Zr1202     O1209   2.395       .  S
Zr1203     O1205   2.436       .  S
Zr1203     O1227   2.440       .  S
Zr1203     O1229   2.421       .  S
Zr1203     O1207   2.379       .  S
Zr1203     O1210   2.390       .  S
Zr1204     O1230   2.435       .  S
Zr1204     O1231   2.437       .  S
Zr1204     O1206   2.439       .  S
Zr1204     O1207   2.389       .  S
Zr1204     O1208   2.403       .  S
O1205      H1242   0.990       .  S
O1206      H1237   0.990       .  S
O1206      H1251   0.990       .  S
O1208      H1234   0.965       .  S
O1209     Zr1219   2.378       .  S
O1210     Zr1219   2.396       .  S
O1210      H1235   0.966       .  S
C1211      C3411   1.479       .  S
C1212      C3379   1.483       .  S
C1213      C3477   1.490       .  S
O1214      H1250   0.990       .  S
O1215      C1217   1.286       .  A
O1216      C1217   1.283       .  A
C1217      C3389   1.479       .  S
O1218     Zr1219   2.435       .  S
O1218      H1247   0.990       .  S
Zr1219     O1222   2.436       .  S
Zr1219     O1223   2.436       .  S
Zr1219     O1224   2.384       .  S
O1220      C1225   1.288       .  A
O1221      H1238   0.990       .  S
O1221      H1253   0.990       .  S
O1222      H1239   0.990       .  S
O1223      H1243   0.990       .  S
O1223      H1252   0.990       .  S
O1224      C1225   1.276       .  A
C1225      C3445   1.483       .  S
O1226      H1245   0.990       .  S
O1226      H1249   0.990       .  S
O1227      H1241   0.990       .  S
O1227      H1248   0.990       .  S
O1228      C1232   1.292       .  A
O1229      C1232   1.283       .  A
O1230      H1240   0.990       .  S
O1231      H1244   0.990       .  S
C1232      C3455   1.494       .  S
Zr1255     O1256   2.443       .  S
Zr1255     O1257   2.451       .  S
Zr1255     O1258   2.454       .  S
Zr1255     O1261   2.417       .  S
Zr1255     O1263   2.380       .  S
Zr1255     O1264   2.390       .  S
Zr1255     O1265   2.405       .  S
Zr1255     O1266   2.415       .  S
O1256      H1312   0.991       .  S
O1256      H1320   0.991       .  S
O1257      C1277   1.287       .  A
O1258      C1279   1.287       .  A
O1259     Zr1269   2.429       .  S
O1259      C1278   1.285       .  A
O1260     Zr1268   2.425       .  S
O1260      C1279   1.282       .  A
O1261      C1278   1.283       .  A
O1262     Zr1270   2.399       .  S
O1262      C1277   1.278       .  A
O1263     Zr1268   2.388       .  S
O1263     Zr1270   2.387       .  S
O1264     Zr1269   2.392       .  S
O1264     Zr1270   2.372       .  S
O1264      H1299   0.966       .  S
O1265     Zr1268   2.396       .  S
O1265     Zr1285   2.389       .  S
O1265      H1302   0.966       .  S
O1266     Zr1269   2.398       .  S
O1266     Zr1285   2.402       .  S
Zr1267     O1292   2.441       .  S
Zr1267     O1286   2.412       .  S
Zr1267     O1294   2.441       .  S
Zr1267     O1282   2.429       .  S
Zr1267     O1273   2.395       .  S
Zr1267     O1274   2.401       .  S
Zr1267     O1275   2.380       .  S
Zr1267     O1276   2.380       .  S
Zr1268     O1287   2.441       .  S
Zr1268     O1280   2.434       .  S
Zr1268     O1281   2.419       .  S
Zr1268     O1274   2.396       .  S
Zr1268     O1275   2.389       .  S
Zr1269     O1271   2.435       .  S
Zr1269     O1293   2.437       .  S
Zr1269     O1295   2.432       .  S
Zr1269     O1273   2.391       .  S
Zr1269     O1276   2.387       .  S
Zr1270     O1296   2.437       .  S
Zr1270     O1297   2.436       .  S
Zr1270     O1272   2.437       .  S
Zr1270     O1273   2.391       .  S
Zr1270     O1274   2.382       .  S
O1271      H1308   0.990       .  S
O1272      H1303   0.990       .  S
O1272      H1317   0.990       .  S
O1274      H1300   0.965       .  S
O1275     Zr1285   2.370       .  S
O1276     Zr1285   2.364       .  S
O1276      H1301   0.965       .  S
C1277      C3335   1.485       .  S
C1278      C3291   1.478   1_455  S
C1279      C3467   1.490       .  S
O1280      H1316   0.990       .  S
O1281      C1283   1.284       .  A
O1282      C1283   1.285       .  A
C1283      C3313   1.478       .  S
O1284     Zr1285   2.438       .  S
O1284      H1313   0.991       .  S
Zr1285     O1288   2.437       .  S
Zr1285     O1289   2.440       .  S
Zr1285     O1290   2.435       .  S
O1286      C1291   1.282       .  A
O1287      H1304   0.991       .  S
O1287      H1319   0.991       .  S
O1288      H1305   0.990       .  S
O1289      H1309   0.990       .  S
O1289      H1318   0.990       .  S
O1290      C1291   1.285       .  A
C1291      C3357   1.482       .  S
O1292      H1311   0.990       .  S
O1292      H1315   0.990       .  S
O1293      H1307   0.990       .  S
O1293      H1314   0.990       .  S
O1294      C1298   1.287       .  A
O1295      C1298   1.286       .  A
O1296      H1306   0.990       .  S
O1297      H1310   0.990       .  S
C1298      C3499   1.489       .  S
Zr1321     O1322   2.439       .  S
Zr1321     O1323   2.406       .  S
Zr1321     O1324   2.445       .  S
Zr1321     O1327   2.441       .  S
Zr1321     O1329   2.381       .  S
Zr1321     O1330   2.385       .  S
Zr1321     O1331   2.396       .  S
Zr1321     O1332   2.391       .  S
O1322      H1378   0.990       .  S
O1322      H1386   0.990       .  S
O1323      C1343   1.280       .  A
O1324      C1345   1.287       .  A
O1325     Zr1335   2.417       .  S
O1325      C1344   1.283       .  A
O1326     Zr1334   2.438       .  S
O1326      C1345   1.286       .  A
O1327      C1344   1.287       .  A
O1328     Zr1336   2.431       .  S
O1328      C1343   1.285       .  A
O1329     Zr1334   2.384       .  S
O1329     Zr1336   2.364       .  S
O1330     Zr1335   2.392       .  S
O1330     Zr1336   2.379       .  S
O1330      H1365   0.966       .  S
O1331     Zr1334   2.400       .  S
O1331     Zr1351   2.396       .  S
O1331      H1368   0.966       .  S
O1332     Zr1335   2.385       .  S
O1332     Zr1351   2.379       .  S
Zr1333     O1358   2.442       .  S
Zr1333     O1352   2.454       .  S
Zr1333     O1360   2.460       .  S
Zr1333     O1348   2.426       .  S
Zr1333     O1339   2.389       .  S
Zr1333     O1340   2.421       .  S
Zr1333     O1341   2.383       .  S
Zr1333     O1342   2.386       .  S
Zr1334     O1353   2.435       .  S
Zr1334     O1346   2.436       .  S
Zr1334     O1347   2.432       .  S
Zr1334     O1340   2.400       .  S
Zr1334     O1341   2.397       .  S
Zr1335     O1337   2.435       .  S
Zr1335     O1359   2.439       .  S
Zr1335     O1361   2.428       .  S
Zr1335     O1339   2.372       .  S
Zr1335     O1342   2.391       .  S
Zr1336     O1362   2.434       .  S
Zr1336     O1363   2.436       .  S
Zr1336     O1338   2.438       .  S
Zr1336     O1339   2.379       .  S
Zr1336     O1340   2.408       .  S
O1337      H1374   0.990       .  S
O1338      H1369   0.990       .  S
O1338      H1383   0.990       .  S
O1340      H1366   0.966       .  S
O1341     Zr1351   2.380       .  S
O1342     Zr1351   2.394       .  S
O1342      H1367   0.967       .  S
C1343      C3213   1.479   1_455  S
C1344      C3423   1.484       .  S
C1345      C3257   1.493       .  S
O1346      H1382   0.990       .  S
O1347      C1349   1.285       .  A
O1348      C1349   1.282       .  A
C1349      C3433   1.481       .  S
O1350     Zr1351   2.436       .  S
O1350      H1379   0.990       .  S
Zr1351     O1354   2.436       .  S
Zr1351     O1355   2.439       .  S
Zr1351     O1356   2.405       .  S
O1352      C1357   1.287       .  A
O1353      H1370   0.990       .  S
O1353      H1385   0.990       .  S
O1354      H1371   0.990       .  S
O1355      H1375   0.990       .  S
O1355      H1384   0.990       .  S
O1356      C1357   1.280       .  A
C1357      C3203   1.488       .  S
O1358      H1377   0.991       .  S
O1358      H1381   0.990       .  S
O1359      H1373   0.990       .  S
O1359      H1380   0.990       .  S
O1360      C1364   1.289       .  A
O1361      C1364   1.285       .  A
O1362      H1372   0.990       .  S
O1363      H1376   0.991       .  S
C1364      C3235   1.491       .  S
Zr1387     O1388   2.442       .  S
Zr1387     O1389   2.454       .  S
Zr1387     O1390   2.469       .  S
Zr1387     O1393   2.414       .  S
Zr1387     O1395   2.375       .  S
Zr1387     O1396   2.394       .  S
Zr1387     O1397   2.409       .  S
Zr1387     O1398   2.417       .  S
O1388      H1444   0.990       .  S
O1388      H1452   0.991       .  S
O1389      C1409   1.287       .  A
O1390      C1411   1.290       .  A
O1391     Zr1401   2.441       .  S
O1391      C1410   1.286       .  A
O1392     Zr1400   2.417       .  S
O1392      C1411   1.281       .  A
O1393      C1410   1.281       .  A
O1394     Zr1402   2.383       .  S
O1394      C1409   1.276       .  A
O1395     Zr1400   2.391       .  S
O1395     Zr1402   2.391       .  S
O1396     Zr1401   2.394       .  S
O1396     Zr1402   2.379       .  S
O1396      H1431   0.966       .  S
O1397     Zr1400   2.402       .  S
O1397     Zr1417   2.386       .  S
O1397      H1434   0.964       .  S
O1398     Zr1401   2.396       .  S
O1398     Zr1417   2.398       .  S
Zr1399     O1424   2.444       .  S
Zr1399     O1418   2.413       .  S
Zr1399     O1426   2.426       .  S
Zr1399     O1414   2.445       .  S
Zr1399     O1405   2.402       .  S
Zr1399     O1406   2.391       .  S
Zr1399     O1407   2.375       .  S
Zr1399     O1408   2.388       .  S
Zr1400     O1419   2.438       .  S
Zr1400     O1412   2.434       .  S
Zr1400     O1413   2.417       .  S
Zr1400     O1406   2.392       .  S
Zr1400     O1407   2.385       .  S
Zr1401     O1403   2.435       .  S
Zr1401     O1425   2.440       .  S
Zr1401     O1427   2.443       .  S
Zr1401     O1405   2.401       .  S
Zr1401     O1408   2.390       .  S
Zr1402     O1428   2.437       .  S
Zr1402     O1429   2.434       .  S
Zr1402     O1404   2.437       .  S
Zr1402     O1405   2.388       .  S
Zr1402     O1406   2.373       .  S
O1403      H1440   0.990       .  S
O1404      H1435   0.990       .  S
O1404      H1449   0.990       .  S
O1406      H1432   0.965       .  S
O1407     Zr1417   2.372       .  S
O1408     Zr1417   2.359       .  S
O1408      H1433   0.966       .  S
C1409      C3147   1.480       .  S
C1410      C3323   1.483       .  S
C1411      C3247   1.490       .  S
O1412      H1448   0.990       .  S
O1413      C1415   1.283       .  A
O1414      C1415   1.288       .  A
C1415      C3345   1.484       .  S
O1416     Zr1417   2.438       .  S
O1416      H1445   0.990       .  S
Zr1417     O1420   2.435       .  S
Zr1417     O1421   2.441       .  S
Zr1417     O1422   2.427       .  S
O1418      C1423   1.282       .  A
O1419      H1436   0.990       .  S
O1419      H1451   0.990       .  S
O1420      H1437   0.990       .  S
O1421      H1441   0.990       .  S
O1421      H1450   0.990       .  S
O1422      C1423   1.284       .  A
C1423      C3169   1.480       .  S
O1424      H1443   0.990       .  S
O1424      H1447   0.990       .  S
O1425      H1439   0.990       .  S
O1425      H1446   0.990       .  S
O1426      C1430   1.285       .  A
O1427      C1430   1.287       .  A
O1428      H1438   0.990       .  S
O1429      H1442   0.990       .  S
C1430      C3599   1.482       .  S
Zr1453     O1454   2.438       .  S
Zr1453     O1455   2.419       .  S
Zr1453     O1456   2.438       .  S
Zr1453     O1459   2.440       .  S
Zr1453     O1461   2.380       .  S
Zr1453     O1462   2.384       .  S
Zr1453     O1463   2.403       .  S
Zr1453     O1464   2.394       .  S
O1454      H1510   0.990       .  S
O1454      H1518   0.990       .  S
O1455      C1475   1.282       .  A
O1456      C1477   1.287       .  A
O1457     Zr1467   2.418       .  S
O1457      C1476   1.284       .  A
O1458     Zr1466   2.437       .  S
O1458      C1477   1.286       .  A
O1459      C1476   1.287       .  A
O1460     Zr1468   2.445       .  S
O1460      C1475   1.287       .  A
O1461     Zr1466   2.391       .  S
O1461     Zr1468   2.362       .  S
O1462     Zr1467   2.391       .  S
O1462     Zr1468   2.375       .  S
O1462      H1497   0.967       .  S
O1463     Zr1466   2.397       .  S
O1463     Zr1483   2.399       .  S
O1463      H1500   0.963       .  S
O1464     Zr1467   2.387       .  S
O1464     Zr1483   2.377       .  S
Zr1465     O1490   2.442       .  S
Zr1465     O1484   2.465       .  S
Zr1465     O1492   2.452       .  S
Zr1465     O1480   2.427       .  S
Zr1465     O1471   2.396       .  S
Zr1465     O1472   2.426       .  S
Zr1465     O1473   2.383       .  S
Zr1465     O1474   2.383       .  S
Zr1466     O1485   2.436       .  S
Zr1466     O1478   2.435       .  S
Zr1466     O1479   2.439       .  S
Zr1466     O1472   2.405       .  S
Zr1466     O1473   2.390       .  S
Zr1467     O1469   2.437       .  S
Zr1467     O1491   2.441       .  S
Zr1467     O1493   2.425       .  S
Zr1467     O1471   2.381       .  S
Zr1467     O1474   2.391       .  S
Zr1468     O1494   2.436       .  S
Zr1468     O1495   2.435       .  S
Zr1468     O1470   2.436       .  S
Zr1468     O1471   2.389       .  S
Zr1468     O1472   2.415       .  S
O1469      H1506   0.990       .  S
O1470      H1501   0.990       .  S
O1470      H1515   0.990       .  S
O1472      H1498   0.966       .  S
O1473     Zr1483   2.381       .  S
O1474     Zr1483   2.392       .  S
O1474      H1499   0.969       .  S
C1475      C3367   1.488   1_565  S
C1476      C3225   1.480       .  S
C1477      C3103   1.490       .  S
O1478      H1514   0.990       .  S
O1479      C1481   1.286       .  A
O1480      C1481   1.282       .  A
C1481      C3191   1.486       .  S
O1482     Zr1483   2.438       .  S
O1482      H1511   0.990       .  S
Zr1483     O1486   2.437       .  S
Zr1483     O1487   2.441       .  S
Zr1483     O1488   2.387       .  S
O1484      C1489   1.288       .  A
O1485      H1502   0.990       .  S
O1485      H1517   0.990       .  S
O1486      H1503   0.990       .  S
O1487      H1507   0.990       .  S
O1487      H1516   0.990       .  S
O1488      C1489   1.276       .  A
C1489      C3401   1.486       .  S
O1490      H1509   0.991       .  S
O1490      H1513   0.990       .  S
O1491      H1505   0.990       .  S
O1491      H1512   0.990       .  S
O1492      C1496   1.288       .  A
O1493      C1496   1.284       .  A
O1494      H1504   0.990       .  S
O1495      H1508   0.990       .  S
C1496      C3125   1.488       .  S
Zr1519     O1520   2.443       .  S
Zr1519     O1521   2.457       .  S
Zr1519     O1522   2.451       .  S
Zr1519     O1525   2.414       .  S
Zr1519     O1527   2.379       .  S
Zr1519     O1528   2.389       .  S
Zr1519     O1529   2.409       .  S
Zr1519     O1530   2.418       .  S
O1520      H1576   0.990       .  S
O1520      H1584   0.990       .  S
O1521      C1541   1.288       .  A
O1522      C1543   1.287       .  A
O1523     Zr1533   2.441       .  S
O1523      C1542   1.288       .  A
O1524     Zr1532   2.425       .  S
O1524      C1543   1.284       .  A
O1525      C1542   1.282       .  A
O1526     Zr1534   2.394       .  S
O1526      C1541   1.278       .  A
O1527     Zr1532   2.391       .  S
O1527     Zr1534   2.386       .  S
O1528     Zr1533   2.397       .  S
O1528     Zr1534   2.371       .  S
O1528      H1563   0.966       .  S
O1529     Zr1532   2.396       .  S
O1529     Zr1549   2.386       .  S
O1529      H1566   0.964       .  S
O1530     Zr1533   2.396       .  S
O1530     Zr1549   2.401       .  S
Zr1531     O1556   2.440       .  S
Zr1531     O1550   2.406       .  S
Zr1531     O1558   2.429       .  S
Zr1531     O1546   2.444       .  S
Zr1531     O1537   2.394       .  S
Zr1531     O1538   2.394       .  S
Zr1531     O1539   2.379       .  S
Zr1531     O1540   2.386       .  S
Zr1532     O1551   2.436       .  S
Zr1532     O1544   2.436       .  S
Zr1532     O1545   2.419       .  S
Zr1532     O1538   2.394       .  S
Zr1532     O1539   2.385       .  S
Zr1533     O1535   2.436       .  S
Zr1533     O1557   2.434       .  S
Zr1533     O1559   2.457       .  S
Zr1533     O1537   2.394       .  S
Zr1533     O1540   2.386       .  S
Zr1534     O1560   2.436       .  S
Zr1534     O1561   2.436       .  S
Zr1534     O1536   2.437       .  S
Zr1534     O1537   2.389       .  S
Zr1534     O1538   2.378       .  S
O1535      H1572   0.990       .  S
O1536      H1567   0.990       .  S
O1536      H1581   0.990       .  S
O1538      H1564   0.966       .  S
O1539     Zr1549   2.375       .  S
O1540     Zr1549   2.360       .  S
O1540      H1565   0.964       .  S
C1541      C3279   1.483       .  S
C1542      C3159   1.483       .  S
C1543      C3137   1.487       .  S
O1544      H1580   0.990       .  S
O1545      C1547   1.283       .  A
O1546      C1547   1.288       .  A
C1547      C3181   1.485       .  S
O1548     Zr1549   2.440       .  S
O1548      H1577   0.990       .  S
Zr1549     O1552   2.437       .  S
Zr1549     O1553   2.440       .  S
Zr1549     O1554   2.432       .  S
O1550      C1555   1.281       .  A
O1551      H1568   0.990       .  S
O1551      H1583   0.990       .  S
O1552      H1569   0.990       .  S
O1553      H1573   0.990       .  S
O1553      H1582   0.989       .  S
O1554      C1555   1.285       .  A
C1555      C3301   1.479       .  S
O1556      H1575   0.990       .  S
O1556      H1579   0.990       .  S
O1557      H1571   0.990       .  S
O1557      H1578   0.990       .  S
O1558      C1562   1.286       .  A
O1559      C1562   1.290       .  A
O1560      H1570   0.990       .  S
O1561      H1574   0.990       .  S
C1562      C3775   1.492       .  S
Zr1585     O1586   2.438       .  S
Zr1585     O1587   2.407       .  S
Zr1585     O1588   2.442       .  S
Zr1585     O1591   2.444       .  S
Zr1585     O1593   2.384       .  S
Zr1585     O1594   2.386       .  S
Zr1585     O1595   2.395       .  S
Zr1585     O1596   2.390       .  S
O1586      H1642   0.990       .  S
O1586      H1650   0.990       .  S
O1587      C1607   1.280       .  A
O1588      C1609   1.287       .  A
O1589     Zr1599   2.410       .  S
O1589      C1608   1.282       .  A
O1590     Zr1598   2.446       .  S
O1590      C1609   1.288       .  A
O1591      C1608   1.287       .  A
O1592     Zr1600   2.443       .  S
O1592      C1607   1.287       .  A
O1593     Zr1598   2.390       .  S
O1593     Zr1600   2.368       .  S
O1594     Zr1599   2.383       .  S
O1594     Zr1600   2.378       .  S
O1594      H1629   0.966       .  S
O1595     Zr1598   2.401       .  S
O1595     Zr1615   2.391       .  S
O1595      H1632   0.966       .  S
O1596     Zr1599   2.384       .  S
O1596     Zr1615   2.377       .  S
Zr1597     O1622   2.442       .  S
Zr1597     O1616   2.467       .  S
Zr1597     O1624   2.455       .  S
Zr1597     O1612   2.434       .  S
Zr1597     O1603   2.404       .  S
Zr1597     O1604   2.423       .  S
Zr1597     O1605   2.383       .  S
Zr1597     O1606   2.383       .  S
Zr1598     O1617   2.435       .  S
Zr1598     O1610   2.435       .  S
Zr1598     O1611   2.433       .  S
Zr1598     O1604   2.401       .  S
Zr1598     O1605   2.398       .  S
Zr1599     O1601   2.434       .  S
Zr1599     O1623   2.442       .  S
Zr1599     O1625   2.415       .  S
Zr1599     O1603   2.381       .  S
Zr1599     O1606   2.390       .  S
Zr1600     O1626   2.437       .  S
Zr1600     O1627   2.436       .  S
Zr1600     O1602   2.436       .  S
Zr1600     O1603   2.391       .  S
Zr1600     O1604   2.411       .  S
O1601      H1638   0.990       .  S
O1602      H1633   0.990   1_655  S
O1602      H1647   0.990       .  S
O1604      H1630   0.966       .  S
O1605     Zr1615   2.376       .  S
O1606     Zr1615   2.391       .  S
O1606      H1631   0.966       .  S
C1607      C2993   1.482   1_655  S
C1608      C3037   1.481       .  S
C1609      C3269   1.496       .  S
O1610      H1646   0.990       .  S
O1611      C1613   1.285       .  A
O1612      C1613   1.282       .  A
C1613      C3059   1.483       .  S
O1614     Zr1615   2.434       .  S
O1614      H1643   0.990       .  S
Zr1615     O1618   2.435       .  S
Zr1615     O1619   2.441       .  S
Zr1615     O1620   2.391       .  S
O1616      C1621   1.288       .  A
O1617      H1634   0.990       .  S
O1617      H1649   0.990       .  S
O1618      H1635   0.990       .  S
O1619      H1639   0.990       .  S
O1619      H1648   0.990       .  S
O1620      C1621   1.278       .  A
C1621      C3027   1.485       .  S
O1622      H1641   0.991       .  S
O1622      H1645   0.990       .  S
O1623      H1637   0.990       .  S
O1623      H1644   0.990       .  S
O1624      C1628   1.288       .  A
O1625      C1628   1.282       .  A
O1626      H1636   0.990       .  S
O1627      H1640   0.990       .  S
C1628      C3081   1.487       .  S
Zr1651     O1652   2.444       .  S
Zr1651     O1653   2.458       .  S
Zr1651     O1654   2.450       .  S
Zr1651     O1657   2.413       .  S
Zr1651     O1659   2.379       .  S
Zr1651     O1660   2.388       .  S
Zr1651     O1661   2.408       .  S
Zr1651     O1662   2.413       .  S
O1652      H1708   0.990       .  S
O1652      H1716   0.991       .  S
O1653      C1673   1.289       .  A
O1654      C1675   1.286       .  A
O1655     Zr1665   2.444       .  S
O1655      C1674   1.288       .  A
O1656     Zr1664   2.426       .  S
O1656      C1675   1.283       .  A
O1657      C1674   1.281       .  A
O1658     Zr1666   2.391       .  S
O1658      C1673   1.277       .  A
O1659     Zr1664   2.388       .  S
O1659     Zr1666   2.390       .  S
O1660     Zr1665   2.390       .  S
O1660     Zr1666   2.377       .  S
O1660      H1695   0.966       .  S
O1661     Zr1664   2.391       .  S
O1661     Zr1681   2.386       .  S
O1661      H1698   0.964       .  S
O1662     Zr1665   2.394       .  S
O1662     Zr1681   2.398       .  S
Zr1663     O1688   2.441       .  S
Zr1663     O1682   2.406       .  S
Zr1663     O1690   2.438       .  S
Zr1663     O1678   2.441       .  S
Zr1663     O1669   2.399       .  S
Zr1663     O1670   2.400       .  S
Zr1663     O1671   2.385       .  S
Zr1663     O1672   2.387       .  S
Zr1664     O1683   2.438       .  S
Zr1664     O1676   2.436       .  S
Zr1664     O1677   2.405       .  S
Zr1664     O1670   2.398       .  S
Zr1664     O1671   2.388       .  S
Zr1665     O1667   2.434       .  S
Zr1665     O1689   2.438       .  S
Zr1665     O1691   2.445       .  S
Zr1665     O1669   2.395       .  S
Zr1665     O1672   2.392       .  S
Zr1666     O1692   2.434       .  S
Zr1666     O1693   2.438       .  S
Zr1666     O1668   2.441       .  S
Zr1666     O1669   2.392       .  S
Zr1666     O1670   2.372       .  S
O1667      H1704   0.990       .  S
O1668      H1699   0.990       .  S
O1668      H1713   0.990       .  S
O1670      H1696   0.965       .  S
O1671     Zr1681   2.374       .  S
O1672     Zr1681   2.361       .  S
O1672      H1697   0.963       .  S
C1673      C2939   1.484       .  S
C1674      C2895   1.486       .  S
C1675      C3093   1.487       .  S
O1676      H1712   0.990       .  S
O1677      C1679   1.282       .  A
O1678      C1679   1.286       .  A
C1679      C2917   1.476       .  S
O1680     Zr1681   2.439       .  S
O1680      H1709   0.990       .  S
Zr1681     O1684   2.437       .  S
Zr1681     O1685   2.438       .  S
Zr1681     O1686   2.431       .  S
O1682      C1687   1.280       .  A
O1683      H1700   0.990       .  S
O1683      H1715   0.990       .  S
O1684      H1701   0.990       .  S
O1685      H1705   0.990       .  S
O1685      H1714   0.990       .  S
O1686      C1687   1.285       .  A
C1687      C2949   1.479       .  S
O1688      H1707   0.990       .  S
O1688      H1711   0.990       .  S
O1689      H1703   0.990       .  S
O1689      H1710   0.990       .  S
O1690      C1694   1.287       .  A
O1691      C1694   1.288       .  A
O1692      H1702   0.990       .  S
O1693      H1706   0.990       .  S
C1694      C2983   1.490       .  S
Zr1717     O1718   2.440       .  S
Zr1717     O1719   2.408       .  S
Zr1717     O1720   2.441       .  S
Zr1717     O1723   2.436       .  S
Zr1717     O1725   2.380       .  S
Zr1717     O1726   2.388       .  S
Zr1717     O1727   2.397       .  S
Zr1717     O1728   2.396       .  S
O1718      H1774   0.990       .  S
O1718      H1782   0.990       .  S
O1719      C1739   1.280       .  A
O1720      C1741   1.286       .  A
O1721     Zr1731   2.419       .  S
O1721      C1740   1.283       .  A
O1722     Zr1730   2.438       .  S
O1722      C1741   1.286       .  A
O1723      C1740   1.286       .  A
O1724     Zr1732   2.432       .  S
O1724      C1739   1.285       .  A
O1725     Zr1730   2.386       .  S
O1725     Zr1732   2.365       .  S
O1726     Zr1731   2.392       .  S
O1726     Zr1732   2.381       .  S
O1726      H1761   0.967       .  S
O1727     Zr1730   2.395       .  S
O1727     Zr1747   2.393       .  S
O1727      H1764   0.965       .  S
O1728     Zr1731   2.389       .  S
O1728     Zr1747   2.379       .  S
Zr1729     O1754   2.443       .  S
Zr1729     O1748   2.467       .  S
Zr1729     O1756   2.472       .  S
Zr1729     O1744   2.427       .  S
Zr1729     O1735   2.387       .  S
Zr1729     O1736   2.428       .  S
Zr1729     O1737   2.384       .  S
Zr1729     O1738   2.386       .  S
Zr1730     O1749   2.436       .  S
Zr1730     O1742   2.436       .  S
Zr1730     O1743   2.425       .  S
Zr1730     O1736   2.401       .  S
Zr1730     O1737   2.392       .  S
Zr1731     O1733   2.436       .  S
Zr1731     O1755   2.437       .  S
Zr1731     O1757   2.435       .  S
Zr1731     O1735   2.369       .  S
Zr1731     O1738   2.390       .  S
Zr1732     O1758   2.437       .  S
Zr1732     O1759   2.435       .  S
Zr1732     O1734   2.437       .  S
Zr1732     O1735   2.378       .  S
Zr1732     O1736   2.414       .  S
O1733      H1770   0.990       .  S
O1734      H1765   0.990       .  S
O1734      H1779   0.990       .  S
O1736      H1762   0.966       .  S
O1737     Zr1747   2.380       .  S
O1738     Zr1747   2.398       .  S
O1738      H1763   0.966       .  S
C1739      C2861   1.478       .  S
C1740      C3005   1.482       .  S
C1741      C3489   1.492       .  S
O1742      H1778   0.990       .  S
O1743      C1745   1.285       .  A
O1744      C1745   1.281       .  A
C1745      C3015   1.478       .  S
O1746     Zr1747   2.436       .  S
O1746      H1775   0.990       .  S
Zr1747     O1750   2.435       .  S
Zr1747     O1751   2.438       .  S
Zr1747     O1752   2.385       .  S
O1748      C1753   1.289       .  A
O1749      H1766   0.990       .  S
O1749      H1781   0.990       .  S
O1750      H1767   0.990       .  S
O1751      H1771   0.990       .  S
O1751      H1780   0.990       .  S
O1752      C1753   1.276       .  A
C1753      C2851   1.486       .  S
O1754      H1773   0.991       .  S
O1754      H1777   0.990       .  S
O1755      H1769   0.990       .  S
O1755      H1776   0.990       .  S
O1756      C1760   1.292       .  A
O1757      C1760   1.285       .  A
O1758      H1768   0.990       .  S
O1759      H1772   0.991       .  S
C1760      C2817   1.496       .  S
Zr1783     O1784   2.439       .  S
Zr1783     O1785   2.457       .  S
Zr1783     O1786   2.458       .  S
Zr1783     O1789   2.425       .  S
Zr1783     O1791   2.380       .  S
Zr1783     O1792   2.387       .  S
Zr1783     O1793   2.413       .  S
Zr1783     O1794   2.417       .  S
O1784      H1840   0.990       .  S
O1784      H1848   0.990       .  S
O1785      C1805   1.288       .  A
O1786      C1807   1.288       .  A
O1787     Zr1797   2.432       .  S
O1787      C1806   1.285       .  A
O1788     Zr1796   2.424       .  S
O1788      C1807   1.283       .  A
O1789      C1806   1.283       .  A
O1790     Zr1798   2.394       .  S
O1790      C1805   1.277       .  A
O1791     Zr1796   2.393       .  S
O1791     Zr1798   2.391       .  S
O1792     Zr1797   2.396       .  S
O1792     Zr1798   2.374       .  S
O1792      H1827   0.968       .  S
O1793     Zr1796   2.397       .  S
O1793     Zr1813   2.391       .  S
O1793      H1830   0.965       .  S
O1794     Zr1797   2.396       .  S
O1794     Zr1813   2.404       .  S
Zr1795     O1820   2.441       .  S
Zr1795     O1814   2.406       .  S
Zr1795     O1822   2.433       .  S
Zr1795     O1810   2.437       .  S
Zr1795     O1801   2.395       .  S
Zr1795     O1802   2.396       .  S
Zr1795     O1803   2.378       .  S
Zr1795     O1804   2.385       .  S
Zr1796     O1815   2.439       .  S
Zr1796     O1808   2.436       .  S
Zr1796     O1809   2.414       .  S
Zr1796     O1802   2.398       .  S
Zr1796     O1803   2.386       .  S
Zr1797     O1799   2.435       .  S
Zr1797     O1821   2.436       .  S
Zr1797     O1823   2.440       .  S
Zr1797     O1801   2.397       .  S
Zr1797     O1804   2.391       .  S
Zr1798     O1824   2.437       .  S
Zr1798     O1825   2.437       .  S
Zr1798     O1800   2.438       .  S
Zr1798     O1801   2.388       .  S
Zr1798     O1802   2.381       .  S
O1799      H1836   0.990       .  S
O1800      H1831   0.990       .  S
O1800      H1845   0.990       .  S
O1802      H1828   0.965       .  S
O1803     Zr1813   2.373       .  S
O1804     Zr1813   2.362       .  S
O1804      H1829   0.966       .  S
C1805      C2763   1.486       .  S
C1806      C2927   1.484   1_545  S
C1807      C2829   1.491       .  S
O1808      H1844   0.990       .  S
O1809      C1811   1.283       .  A
O1810      C1811   1.286       .  A
C1811      C2961   1.479       .  S
O1812     Zr1813   2.439       .  S
O1812      H1841   0.991       .  S
Zr1813     O1816   2.436       .  S
Zr1813     O1817   2.439       .  S
Zr1813     O1818   2.437       .  S
O1814      C1819   1.280       .  A
O1815      H1832   0.990       .  S
O1815      H1847   0.990       .  S
O1816      H1833   0.990       .  S
O1817      H1837   0.990       .  S
O1817      H1846   0.989       .  S
O1818      C1819   1.285       .  A
C1819      C2773   1.481       .  S
O1820      H1839   0.990       .  S
O1820      H1843   0.990       .  S
O1821      H1835   0.990       .  S
O1821      H1842   0.990       .  S
O1822      C1826   1.287       .  A
O1823      C1826   1.287       .  A
O1824      H1834   0.990       .  S
O1825      H1838   0.990       .  S
C1826      C2807   1.489       .  S
Zr1849     O1850   2.439       .  S
Zr1849     O1851   2.423       .  S
Zr1849     O1852   2.427       .  S
Zr1849     O1855   2.437       .  S
Zr1849     O1857   2.384       .  S
Zr1849     O1858   2.381       .  S
Zr1849     O1859   2.404       .  S
Zr1849     O1860   2.391       .  S
O1850      H1906   0.990       .  S
O1850      H1914   0.990       .  S
O1851      C1871   1.283       .  A
O1852      C1873   1.285       .  A
O1853     Zr1863   2.403       .  S
O1853      C1872   1.280       .  A
O1854     Zr1862   2.439       .  S
O1854      C1873   1.286       .  A
O1855      C1872   1.285       .  A
O1856     Zr1864   2.430       .  S
O1856      C1871   1.284       .  A
O1857     Zr1862   2.392       .  S
O1857     Zr1864   2.365       .  S
O1858     Zr1863   2.391       .  S
O1858     Zr1864   2.380       .  S
O1858      H1893   0.969       .  S
O1859     Zr1862   2.402       .  S
O1859     Zr1879   2.392       .  S
O1859      H1896   0.963       .  S
O1860     Zr1863   2.386       .  S
O1860     Zr1879   2.382       .  S
Zr1861     O1886   2.441       .  S
Zr1861     O1880   2.462       .  S
Zr1861     O1888   2.468       .  S
Zr1861     O1876   2.428       .  S
Zr1861     O1867   2.389       .  S
Zr1861     O1868   2.425       .  S
Zr1861     O1869   2.389       .  S
Zr1861     O1870   2.386       .  S
Zr1862     O1881   2.438       .  S
Zr1862     O1874   2.436       .  S
Zr1862     O1875   2.434       .  S
Zr1862     O1868   2.402       .  S
Zr1862     O1869   2.393       .  S
Zr1863     O1865   2.437       .  S
Zr1863     O1887   2.440       .  S
Zr1863     O1889   2.417       .  S
Zr1863     O1867   2.376       .  S
Zr1863     O1870   2.387       .  S
Zr1864     O1890   2.434       .  S
Zr1864     O1891   2.435       .  S
Zr1864     O1866   2.438       .  S
Zr1864     O1867   2.386       .  S
Zr1864     O1868   2.406       .  S
O1865      H1902   0.990       .  S
O1866      H1897   0.990   1_545  S
O1866      H1911   0.990   1_545  S
O1868      H1894   0.965       .  S
O1869     Zr1879   2.374       .  S
O1870     Zr1879   2.395       .  S
O1870      H1895   0.959       .  S
C1871      C3049   1.484   1_545  S
C1872      C2873   1.479       .  S
C1873      C3115   1.488       .  S
O1874      H1910   0.990       .  S
O1875      C1877   1.286       .  A
O1876      C1877   1.282       .  A
C1877      C2839   1.484       .  S
O1878     Zr1879   2.434       .  S
O1878      H1907   0.990       .  S
Zr1879     O1882   2.436       .  S
Zr1879     O1883   2.437       .  S
Zr1879     O1884   2.396       .  S
O1880      C1885   1.289       .  A
O1881      H1898   0.990       .  S
O1881      H1913   0.990       .  S
O1882      H1899   0.990       .  S
O1883      H1903   0.990       .  S
O1883      H1912   0.990       .  S
O1884      C1885   1.278       .  A
C1885      C3071   1.485       .  S
O1886      H1905   0.991       .  S
O1886      H1909   0.990       .  S
O1887      H1901   0.990       .  S
O1887      H1908   0.990       .  S
O1888      C1892   1.291       .  A
O1889      C1892   1.282       .  A
O1890      H1900   0.990       .  S
O1891      H1904   0.990       .  S
C1892      C2729   1.490       .  S
Zr1915     O1916   2.442       .  S
Zr1915     O1917   2.461       .  S
Zr1915     O1918   2.468       .  S
Zr1915     O1921   2.420       .  S
Zr1915     O1923   2.376       .  S
Zr1915     O1924   2.389       .  S
Zr1915     O1925   2.405       .  S
Zr1915     O1926   2.418       .  S
O1916      H1972   0.990       .  S
O1916      H1980   0.991       .  S
O1917      C1937   1.288       .  A
O1918      C1939   1.289       .  A
O1919     Zr1929   2.435       .  S
O1919      C1938   1.286       .  A
O1920     Zr1928   2.411       .  S
O1920      C1939   1.280       .  A
O1921      C1938   1.283       .  A
O1922     Zr1930   2.391       .  S
O1922      C1937   1.277       .  A
O1923     Zr1928   2.393       .  S
O1923     Zr1930   2.387       .  S
O1924     Zr1929   2.390       .  S
O1924     Zr1930   2.373       .  S
O1924      H1959   0.967       .  S
O1925     Zr1928   2.396       .  S
O1925     Zr1945   2.388       .  S
O1925      H1962   0.965       .  S
O1926     Zr1929   2.401       .  S
O1926     Zr1945   2.401       .  S
Zr1927     O1952   2.440       .  S
Zr1927     O1946   2.404       .  S
Zr1927     O1954   2.435       .  S
Zr1927     O1942   2.451       .  S
Zr1927     O1933   2.403       .  S
Zr1927     O1934   2.395       .  S
Zr1927     O1935   2.378       .  S
Zr1927     O1936   2.386       .  S
Zr1928     O1947   2.438       .  S
Zr1928     O1940   2.435       .  S
Zr1928     O1941   2.399       .  S
Zr1928     O1934   2.395       .  S
Zr1928     O1935   2.387       .  S
Zr1929     O1931   2.436       .  S
Zr1929     O1953   2.435       .  S
Zr1929     O1955   2.445       .  S
Zr1929     O1933   2.397       .  S
Zr1929     O1936   2.389       .  S
Zr1930     O1956   2.437       .  S
Zr1930     O1957   2.436       .  S
Zr1930     O1932   2.435       .  S
Zr1930     O1933   2.395       .  S
Zr1930     O1934   2.379       .  S
O1931      H1968   0.990       .  S
O1932      H1963   0.990       .  S
O1932      H1977   0.990       .  S
O1934      H1960   0.965       .  S
O1935     Zr1945   2.371       .  S
O1936     Zr1945   2.359       .  S
O1936      H1961   0.966       .  S
C1937      C2883   1.488       .  S
C1938      C2751   1.483   1_655  S
C1939      C2741   1.486       .  S
O1940      H1976   0.990       .  S
O1941      C1943   1.280       .  A
O1942      C1943   1.288       .  A
C1943      C2785   1.480       .  S
O1944     Zr1945   2.438       .  S
O1944      H1973   0.991       .  S
Zr1945     O1948   2.439       .  S
Zr1945     O1949   2.440       .  S
Zr1945     O1950   2.435       .  S
O1946      C1951   1.279       .  A
O1947      H1964   0.990       .  S
O1947      H1979   0.990       .  S
O1948      H1965   0.990       .  S
O1949      H1969   0.990       .  S
O1949      H1978   0.989       .  S
O1950      C1951   1.286       .  A
C1951      C2905   1.478       .  S
O1952      H1971   0.990       .  S
O1952      H1975   0.990       .  S
O1953      H1967   0.990       .  S
O1953      H1974   0.990       .  S
O1954      C1958   1.287       .  A
O1955      C1958   1.288       .  A
O1956      H1966   0.990       .  S
O1957      H1970   0.990       .  S
C1958      C2707   1.491       .  S
Zr1981     O1982   2.441       .  S
Zr1981     O1983   2.441       .  S
Zr1981     O1984   2.471       .  S
Zr1981     O1987   2.427       .  S
Zr1981     O1989   2.378       .  S
Zr1981     O1990   2.392       .  S
Zr1981     O1991   2.405       .  S
Zr1981     O1992   2.415       .  S
O1982      H2038   0.990       .  S
O1982      H2046   0.990       .  S
O1983      C2003   1.285       .  A
O1984      C2005   1.291       .  A
O1985     Zr1995   2.433       .  S
O1985      C2004   1.286       .  A
O1986     Zr1994   2.417       .  S
O1986      C2005   1.282       .  A
O1987      C2004   1.284       .  A
O1988     Zr1996   2.398       .  S
O1988      C2003   1.278       .  A
O1989     Zr1994   2.391       .  S
O1989     Zr1996   2.384       .  S
O1990     Zr1995   2.397       .  S
O1990     Zr1996   2.376       .  S
O1990      H2025   0.966       .  S
O1991     Zr1994   2.395       .  S
O1991     Zr2011   2.389       .  S
O1991      H2028   0.965       .  S
O1992     Zr1995   2.400       .  S
O1992     Zr2011   2.397       .  S
Zr1993     O2018   2.441       .  S
Zr1993     O2012   2.420       .  S
Zr1993     O2020   2.424       .  S
Zr1993     O2008   2.433       .  S
Zr1993     O1999   2.401       .  S
Zr1993     O2000   2.397       .  S
Zr1993     O2001   2.377       .  S
Zr1993     O2002   2.384       .  S
Zr1994     O2013   2.436       .  S
Zr1994     O2006   2.434       .  S
Zr1994     O2007   2.412       .  S
Zr1994     O2000   2.394       .  S
Zr1994     O2001   2.380       .  S
Zr1995     O1997   2.435       .  S
Zr1995     O2019   2.437       .  S
Zr1995     O2021   2.456       .  S
Zr1995     O1999   2.389       .  S
Zr1995     O2002   2.388       .  S
Zr1996     O2022   2.437       .  S
Zr1996     O2023   2.435       .  S
Zr1996     O1998   2.437       .  S
Zr1996     O1999   2.396       .  S
Zr1996     O2000   2.379       .  S
O1997      H2034   0.990       .  S
O1998      H2029   0.990       .  S
O1998      H2043   0.990       .  S
O2000      H2026   0.966       .  S
O2001     Zr2011   2.374       .  S
O2002     Zr2011   2.364       .  S
O2002      H2027   0.966       .  S
C2003      C2619   1.477       .  S
C2004      C2663   1.479       .  S
C2005      C2685   1.493       .  S
O2006      H2042   0.990       .  S
O2007      C2009   1.283       .  A
O2008      C2009   1.285       .  A
C2009      C2653   1.479       .  S
O2010     Zr2011   2.440       .  S
O2010      H2039   0.990       .  S
Zr2011     O2014   2.436       .  S
Zr2011     O2015   2.442       .  S
Zr2011     O2016   2.430       .  S
O2012      C2017   1.282       .  A
O2013      H2030   0.990       .  S
O2013      H2045   0.990       .  S
O2014      H2031   0.990       .  S
O2015      H2035   0.990       .  S
O2015      H2044   0.990       .  S
O2016      C2017   1.285       .  A
C2017      C2597   1.483       .  S
O2018      H2037   0.990       .  S
O2018      H2041   0.990       .  S
O2019      H2033   0.990       .  S
O2019      H2040   0.990       .  S
O2020      C2024   1.285       .  A
O2021      C2024   1.291       .  A
O2022      H2032   0.990       .  S
O2023      H2036   0.990       .  S
C2024      C2971   1.491       .  S
Zr2047     O2048   2.439       .  S
Zr2047     O2049   2.416       .  S
Zr2047     O2050   2.439       .  S
Zr2047     O2053   2.438       .  S
Zr2047     O2055   2.381       .  S
Zr2047     O2056   2.385       .  S
Zr2047     O2057   2.400       .  S
Zr2047     O2058   2.392       .  S
O2048      H2104   0.990       .  S
O2048      H2112   0.990       .  S
O2049      C2069   1.282       .  A
O2050      C2071   1.287       .  A
O2051     Zr2061   2.416       .  S
O2051      C2070   1.283       .  A
O2052     Zr2060   2.436       .  S
O2052      C2071   1.286       .  A
O2053      C2070   1.287       .  A
O2054     Zr2062   2.424       .  S
O2054      C2069   1.283       .  A
O2055     Zr2060   2.387       .  S
O2055     Zr2062   2.366       .  S
O2056     Zr2061   2.387       .  S
O2056     Zr2062   2.376       .  S
O2056      H2091   0.967       .  S
O2057     Zr2060   2.393       .  S
O2057     Zr2077   2.396       .  S
O2057      H2094   0.966       .  S
O2058     Zr2061   2.388       .  S
O2058     Zr2077   2.379       .  S
Zr2059     O2084   2.442       .  S
Zr2059     O2078   2.464       .  S
Zr2059     O2086   2.479       .  S
Zr2059     O2074   2.438       .  S
Zr2059     O2065   2.389       .  S
Zr2059     O2066   2.430       .  S
Zr2059     O2067   2.389       .  S
Zr2059     O2068   2.386       .  S
Zr2060     O2079   2.434       .  S
Zr2060     O2072   2.434       .  S
Zr2060     O2073   2.415       .  S
Zr2060     O2066   2.402       .  S
Zr2060     O2067   2.393       .  S
Zr2061     O2063   2.437       .  S
Zr2061     O2085   2.440       .  S
Zr2061     O2087   2.427       .  S
Zr2061     O2065   2.374       .  S
Zr2061     O2068   2.391       .  S
Zr2062     O2088   2.435       .  S
Zr2062     O2089   2.435       .  S
Zr2062     O2064   2.436       .  S
Zr2062     O2065   2.382       .  S
Zr2062     O2066   2.403       .  S
O2063      H2100   0.990       .  S
O2064      H2095   0.990       .  S
O2064      H2109   0.990       .  S
O2066      H2092   0.965       .  S
O2067     Zr2077   2.380       .  S
O2068     Zr2077   2.395       .  S
O2068      H2093   0.965       .  S
C2069      C2543   1.478       .  S
C2070      C2587   1.483       .  S
C2071      C4159   1.492       .  S
O2072      H2108   0.990       .  S
O2073      C2075   1.282       .  A
O2074      C2075   1.284       .  A
C2075      C2553   1.471       .  S
O2076     Zr2077   2.439       .  S
O2076      H2105   0.990       .  S
Zr2077     O2080   2.438       .  S
Zr2077     O2081   2.438       .  S
Zr2077     O2082   2.395       .  S
O2078      C2083   1.288       .  A
O2079      H2096   0.990       .  S
O2079      H2111   0.990       .  S
O2080      H2097   0.990       .  S
O2081      H2101   0.990       .  S
O2081      H2110   0.990       .  S
O2082      C2083   1.278       .  A
C2083      C2509   1.487       .  S
O2084      H2103   0.990       .  S
O2084      H2107   0.990       .  S
O2085      H2099   0.990       .  S
O2085      H2106   0.990       .  S
O2086      C2090   1.293       .  A
O2087      C2090   1.284       .  A
O2088      H2098   0.990       .  S
O2089      H2102   0.990       .  S
C2090      C2697   1.496       .  S
Zr2113     O2114   2.441       .  S
Zr2113     O2115   2.454       .  S
Zr2113     O2116   2.455       .  S
Zr2113     O2119   2.417       .  S
Zr2113     O2121   2.376       .  S
Zr2113     O2122   2.391       .  S
Zr2113     O2123   2.412   1_455  S
Zr2113     O2124   2.419       .  S
O2114      H2170   0.990       .  S
O2114      H2178   0.990       .  S
O2115      C2135   1.287       .  A
O2116      C2137   1.288       .  A
O2117     Zr2127   2.440       .  S
O2117      C2136   1.287       .  A
O2118     Zr2126   2.421       .  S
O2118      C2137   1.282   1_655  A
O2119      C2136   1.282       .  A
O2120     Zr2128   2.400       .  S
O2120      C2135   1.279       .  A
O2121     Zr2126   2.384   1_455  S
O2121     Zr2128   2.384       .  S
O2122     Zr2127   2.396       .  S
O2122     Zr2128   2.374       .  S
O2122      H2157   0.967       .  S
O2123     Zr2126   2.397       .  S
O2123     Zr2143   2.390       .  S
O2123      H2160   0.964       .  S
O2124     Zr2127   2.396       .  S
O2124     Zr2143   2.398   1_455  S
Zr2125     O2150   2.442       .  S
Zr2125     O2144   2.412       .  S
Zr2125     O2152   2.434       .  S
Zr2125     O2140   2.451       .  S
Zr2125     O2131   2.399   1_655  S
Zr2125     O2132   2.399       .  S
Zr2125     O2133   2.379       .  S
Zr2125     O2134   2.387       .  S
Zr2126     O2145   2.438       .  S
Zr2126     O2138   2.436       .  S
Zr2126     O2139   2.410       .  S
Zr2126     O2132   2.396       .  S
Zr2126     O2133   2.384       .  S
Zr2127     O2129   2.435       .  S
Zr2127     O2151   2.433       .  S
Zr2127     O2153   2.454   1_455  S
Zr2127     O2131   2.393       .  S
Zr2127     O2134   2.390   1_455  S
Zr2128     O2154   2.436       .  S
Zr2128     O2155   2.435       .  S
Zr2128     O2130   2.438       .  S
Zr2128     O2131   2.392       .  S
Zr2128     O2132   2.383   1_455  S
O2129      H2166   0.990       .  S
O2130      H2161   0.990       .  S
O2130      H2175   0.990       .  S
O2132      H2158   0.966       .  S
O2133     Zr2143   2.373       .  S
O2134     Zr2143   2.361       .  S
O2134      H2159   0.964       .  S
C2135      C2477   1.486       .  S
C2136      C2631   1.479       .  S
C2137      C2487   1.487       .  S
O2138      H2174   0.990       .  S
O2139      C2141   1.282       .  A
O2140      C2141   1.288       .  A
C2141      C2609   1.485       .  S
O2142     Zr2143   2.439       .  S
O2142      H2171   0.990       .  S
Zr2143     O2146   2.437       .  S
Zr2143     O2147   2.440       .  S
Zr2143     O2148   2.433       .  S
O2144      C2149   1.281       .  A
O2145      H2162   0.990       .  S
O2145      H2177   0.990       .  S
O2146      H2163   0.990       .  S
O2147      H2167   0.990       .  S
O2147      H2176   0.990       .  S
O2148      C2149   1.285       .  A
C2149      C2443   1.478       .  S
O2150      H2169   0.990       .  S
O2150      H2173   0.990       .  S
O2151      H2165   0.990       .  S
O2151      H2172   0.990       .  S
O2152      C2156   1.287       .  A
O2153      C2156   1.289       .  A
O2154      H2164   0.990       .  S
O2155      H2168   0.990   1_455  S
C2156      C2719   1.494       .  S
Zr2179     O2180   2.438       .  S
Zr2179     O2181   2.418       .  S
Zr2179     O2182   2.441       .  S
Zr2179     O2185   2.434       .  S
Zr2179     O2187   2.380       .  S
Zr2179     O2188   2.384       .  S
Zr2179     O2189   2.403   1_455  S
Zr2179     O2190   2.396       .  S
O2180      H2236   0.990       .  S
O2180      H2244   0.990       .  S
O2181      C2201   1.281       .  A
O2182      C2203   1.287       .  A
O2183     Zr2193   2.412       .  S
O2183      C2202   1.282       .  A
O2184     Zr2192   2.439       .  S
O2184      C2203   1.287   1_655  A
O2185      C2202   1.285       .  A
O2186     Zr2194   2.420       .  S
O2186      C2201   1.283       .  A
O2187     Zr2192   2.390   1_455  S
O2187     Zr2194   2.364       .  S
O2188     Zr2193   2.390       .  S
O2188     Zr2194   2.377       .  S
O2188      H2223   0.967       .  S
O2189     Zr2192   2.399       .  S
O2189     Zr2209   2.399       .  S
O2189      H2226   0.965       .  S
O2190     Zr2193   2.387       .  S
O2190     Zr2209   2.382   1_455  S
Zr2191     O2216   2.441       .  S
Zr2191     O2210   2.460       .  S
Zr2191     O2218   2.464       .  S
Zr2191     O2206   2.434       .  S
Zr2191     O2197   2.387   1_655  S
Zr2191     O2198   2.419       .  S
Zr2191     O2199   2.382       .  S
Zr2191     O2200   2.385       .  S
Zr2192     O2211   2.434       .  S
Zr2192     O2204   2.436       .  S
Zr2192     O2205   2.431       .  S
Zr2192     O2198   2.403       .  S
Zr2192     O2199   2.393       .  S
Zr2193     O2195   2.436       .  S
Zr2193     O2217   2.440       .  S
Zr2193     O2219   2.423       .  S
Zr2193     O2197   2.373       .  S
Zr2193     O2200   2.391   1_455  S
Zr2194     O2220   2.436       .  S
Zr2194     O2221   2.435       .  S
Zr2194     O2196   2.435       .  S
Zr2194     O2197   2.375       .  S
Zr2194     O2198   2.404   1_455  S
O2195      H2232   0.990       .  S
O2196      H2227   0.990       .  S
O2196      H2241   0.990       .  S
O2198      H2224   0.966       .  S
O2199     Zr2209   2.378       .  S
O2200     Zr2209   2.395       .  S
O2200      H2225   0.966       .  S
C2201      C2433   1.479       .  S
C2202      C2531   1.478       .  S
C2203      C3907   1.493       .  S
O2204      H2240   0.990       .  S
O2205      C2207   1.285       .  A
O2206      C2207   1.283       .  A
C2207      C2521   1.483       .  S
O2208     Zr2209   2.439       .  S
O2208      H2237   0.990       .  S
Zr2209     O2212   2.436       .  S
Zr2209     O2213   2.439       .  S
Zr2209     O2214   2.395       .  S
O2210      C2215   1.288       .  A
O2211      H2228   0.990       .  S
O2211      H2243   0.990       .  S
O2212      H2229   0.990       .  S
O2213      H2233   0.990       .  S
O2213      H2242   0.989       .  S
O2214      C2215   1.278       .  A
C2215      C2411   1.485       .  S
O2216      H2235   0.991       .  S
O2216      H2239   0.990       .  S
O2217      H2231   0.990       .  S
O2217      H2238   0.990       .  S
O2218      C2222   1.290       .  A
O2219      C2222   1.284   1_455  A
O2220      H2230   0.990       .  S
O2221      H2234   0.990   1_455  S
C2222      C2499   1.489       .  S
Zr2245     O2246   2.441       .  S
Zr2245     O2247   2.457       .  S
Zr2245     O2248   2.471       .  S
Zr2245     O2251   2.428       .  S
Zr2245     O2253   2.381       .  S
Zr2245     O2254   2.389       .  S
Zr2245     O2255   2.411       .  S
Zr2245     O2256   2.415       .  S
O2246      H2302   0.990       .  S
O2246      H2310   0.990       .  S
O2247      C2267   1.287       .  A
O2248      C2269   1.291       .  A
O2249     Zr2259   2.424       .  S
O2249      C2268   1.285       .  A
O2250     Zr2258   2.419       .  S
O2250      C2269   1.283   1_545  A
O2251      C2268   1.284       .  A
O2252     Zr2260   2.399       .  S
O2252      C2267   1.279       .  A
O2253     Zr2258   2.397   1_565  S
O2253     Zr2260   2.386       .  S
O2254     Zr2259   2.397       .  S
O2254     Zr2260   2.372       .  S
O2254      H2289   0.967       .  S
O2255     Zr2258   2.399   1_565  S
O2255     Zr2275   2.385   1_565  S
O2255      H2292   0.965   1_565  S
O2256     Zr2259   2.395       .  S
O2256     Zr2275   2.396   1_565  S
Zr2257     O2282   2.441       .  S
Zr2257     O2276   2.414       .  S
Zr2257     O2284   2.432       .  S
Zr2257     O2272   2.438       .  S
Zr2257     O2263   2.393   1_545  S
Zr2257     O2264   2.399       .  S
Zr2257     O2265   2.377       .  S
Zr2257     O2266   2.379       .  S
Zr2258     O2277   2.437       .  S
Zr2258     O2270   2.437       .  S
Zr2258     O2271   2.423       .  S
Zr2258     O2264   2.397       .  S
Zr2258     O2265   2.382       .  S
Zr2259     O2261   2.435       .  S
Zr2259     O2283   2.435       .  S
Zr2259     O2285   2.447       .  S
Zr2259     O2263   2.391       .  S
Zr2259     O2266   2.382   1_565  S
Zr2260     O2286   2.436       .  S
Zr2260     O2287   2.436       .  S
Zr2260     O2262   2.437       .  S
Zr2260     O2263   2.392       .  S
Zr2260     O2264   2.385   1_565  S
O2261      H2298   0.990       .  S
O2262      H2293   0.990       .  S
O2262      H2307   0.990       .  S
O2264      H2290   0.966       .  S
O2265     Zr2275   2.372       .  S
O2266     Zr2275   2.364       .  S
O2266      H2291   0.966       .  S
C2267      C2675   1.484       .  S
C2268      C2465   1.482       .  S
C2269      C2377   1.491       .  S
O2270      H2306   0.990       .  S
O2271      C2273   1.284       .  A
O2272      C2273   1.286       .  A
C2273      C2455   1.483       .  S
O2274     Zr2275   2.438   1_565  S
O2274      H2303   0.990   1_565  S
Zr2275     O2278   2.438       .  S
Zr2275     O2279   2.438       .  S
Zr2275     O2280   2.430       .  S
O2276      C2281   1.282       .  A
O2277      H2294   0.990       .  S
O2277      H2309   0.990       .  S
O2278      H2295   0.990       .  S
O2279      H2299   0.990       .  S
O2279      H2308   0.990   1_545  S
O2280      C2281   1.285       .  A
C2281      C2641   1.480       .  S
O2282      H2301   0.990       .  S
O2282      H2305   0.990       .  S
O2283      H2297   0.990       .  S
O2283      H2304   0.990       .  S
O2284      C2288   1.287       .  A
O2285      C2288   1.288   1_565  A
O2286      H2296   0.990       .  S
O2287      H2300   0.990   1_565  S
C2288      C2795   1.491       .  S
Zr2311     O2312   2.439       .  S
Zr2311     O2313   2.420       .  S
Zr2311     O2314   2.441       .  S
Zr2311     O2317   2.443       .  S
Zr2311     O2319   2.379       .  S
Zr2311     O2320   2.387       .  S
Zr2311     O2321   2.402       .  S
Zr2311     O2322   2.397       .  S
O2312      H2368   0.990       .  S
O2312      H2376   0.990       .  S
O2313      C2333   1.282       .  A
O2314      C2335   1.287       .  A
O2315     Zr2325   2.413       .  S
O2315      C2334   1.283       .  A
O2316     Zr2324   2.434   1_565  S
O2316      C2335   1.286       .  A
O2317      C2334   1.287       .  A
O2318     Zr2326   2.434       .  S
O2318      C2333   1.285       .  A
O2319     Zr2324   2.390   1_565  S
O2319     Zr2326   2.360       .  S
O2320     Zr2325   2.392       .  S
O2320     Zr2326   2.380       .  S
O2320      H2355   0.966       .  S
O2321     Zr2324   2.401   1_565  S
O2321     Zr2341   2.396   1_565  S
O2321      H2358   0.966       .  S
O2322     Zr2325   2.390       .  S
O2322     Zr2341   2.381   1_565  S
Zr2323     O2348   2.443       .  S
Zr2323     O2342   2.459       .  S
Zr2323     O2350   2.446       .  S
Zr2323     O2338   2.418       .  S
Zr2323     O2329   2.394   1_545  S
Zr2323     O2330   2.426       .  S
Zr2323     O2331   2.379       .  S
Zr2323     O2332   2.380       .  S
Zr2324     O2343   2.436       .  S
Zr2324     O2336   2.435       .  S
Zr2324     O2337   2.442       .  S
Zr2324     O2330   2.398       .  S
Zr2324     O2331   2.392       .  S
Zr2325     O2327   2.437       .  S
Zr2325     O2349   2.438       .  S
Zr2325     O2351   2.431       .  S
Zr2325     O2329   2.374       .  S
Zr2325     O2332   2.388   1_565  S
Zr2326     O2352   2.435       .  S
Zr2326     O2353   2.434       .  S
Zr2326     O2328   2.438       .  S
Zr2326     O2329   2.390       .  S
Zr2326     O2330   2.410   1_565  S
O2327      H2364   0.990       .  S
O2328      H2359   0.990       .  S
O2328      H2373   0.990       .  S
O2330      H2356   0.965       .  S
O2331     Zr2341   2.380       .  S
O2332     Zr2341   2.395       .  S
O2332      H2357   0.965       .  S
C2333      C2575   1.483       .  S
C2334      C2421   1.482       .  S
C2335      C3983   1.490       .  S
O2336      H2372   0.990       .  S
O2337      C2339   1.287       .  A
O2338      C2339   1.280       .  A
C2339      C2399   1.480       .  S
O2340     Zr2341   2.440   1_565  S
O2340      H2369   0.990   1_565  S
Zr2341     O2344   2.437       .  S
Zr2341     O2345   2.439       .  S
Zr2341     O2346   2.395       .  S
O2342      C2347   1.287       .  A
O2343      H2360   0.990       .  S
O2343      H2375   0.990       .  S
O2344      H2361   0.990       .  S
O2345      H2365   0.990       .  S
O2345      H2374   0.990   1_545  S
O2346      C2347   1.277       .  A
C2347      C2565   1.480       .  S
O2348      H2367   0.990       .  S
O2348      H2371   0.990       .  S
O2349      H2363   0.990       .  S
O2349      H2370   0.990       .  S
O2350      C2354   1.287       .  A
O2351      C2354   1.285   1_565  A
O2352      H2362   0.990       .  S
O2353      H2366   0.990   1_565  S
C2354      C2389   1.489       .  S
C2377      C2378   1.406   1_565  A
C2377      C2382   1.404       .  A
C2378      C2379   1.397       .  A
C2378      H2391   1.083       .  S
C2379      C2380   1.413   1_545  A
C2379      H2392   1.077       .  S
C2380      C2386   1.433   1_554  A
C2380      C2381   1.423       .  A
C2381      C2383   1.399       .  A
C2381      C2382   1.410       .  A
C2382      H2393   1.084       .  S
C2383      C2384   1.391   1_554  A
C2383      H2394   1.084       .  S
C2384      C2385   1.400       .  A
C2384      H2395   1.084       .  S
C2385      C2386   1.421       .  A
C2385      C2390   1.406       .  A
C2386      C2387   1.416   1_565  A
C2387      C2388   1.399       .  A
C2387      H2396   1.077       .  S
C2388      C2389   1.403       .  A
C2388      H2397   1.083       .  S
C2389      C2390   1.405   1_545  A
C2390      H2398   1.084       .  S
C2399      C2400   1.404       .  A
C2399      C2404   1.398       .  A
C2400      C2401   1.397       .  A
C2400      H2413   1.084       .  S
C2401      C2402   1.413       .  A
C2401      H2414   1.078       .  S
C2402      C2408   1.432       .  A
C2402      C2403   1.425       .  A
C2403      C2405   1.397       .  A
C2403      C2404   1.404       .  A
C2404      H2415   1.085       .  S
C2405      C2406   1.386       .  A
C2405      H2416   1.084       .  S
C2406      C2407   1.399       .  A
C2406      H2417   1.084       .  S
C2407      C2408   1.420       .  A
C2407      C2412   1.399       .  A
C2408      C2409   1.419       .  A
C2409      C2410   1.402       .  A
C2409      H2418   1.077       .  S
C2410      C2411   1.401       .  A
C2410      H2419   1.083       .  S
C2411      C2412   1.404       .  A
C2412      H2420   1.085       .  S
C2421      C2422   1.402       .  A
C2421      C2426   1.404       .  A
C2422      C2423   1.387       .  A
C2422      H2435   1.083       .  S
C2423      C2424   1.410       .  A
C2423      H2436   1.076       .  S
C2424      C2430   1.425       .  A
C2424      C2425   1.423       .  A
C2425      C2427   1.401       .  A
C2425      C2426   1.410       .  A
C2426      H2437   1.084       .  S
C2427      C2428   1.393       .  A
C2427      H2438   1.084       .  S
C2428      C2429   1.401       .  A
C2428      H2439   1.084       .  S
C2429      C2430   1.421       .  A
C2429      C2434   1.407       .  A
C2430      C2431   1.413       .  A
C2431      C2432   1.388       .  A
C2431      H2440   1.076       .  S
C2432      C2433   1.400       .  A
C2432      H2441   1.083       .  S
C2433      C2434   1.405       .  A
C2434      H2442   1.084       .  S
C2443      C2444   1.402       .  A
C2443      C2448   1.400       .  A
C2444      C2445   1.396       .  A
C2444      H2457   1.083       .  S
C2445      C2446   1.415       .  A
C2445      H2458   1.077       .  S
C2446      C2452   1.429       .  A
C2446      C2447   1.423       .  A
C2447      C2449   1.398       .  A
C2447      C2448   1.402       .  A
C2448      H2459   1.085       .  S
C2449      C2450   1.387       .  A
C2449      H2460   1.084       .  S
C2450      C2451   1.399       .  A
C2450      H2461   1.084       .  S
C2451      C2452   1.421       .  A
C2451      C2456   1.401       .  A
C2452      C2453   1.416       .  A
C2453      C2454   1.398       .  A
C2453      H2462   1.077       .  S
C2454      C2455   1.401       .  A
C2454      H2463   1.083       .  S
C2455      C2456   1.403       .  A
C2456      H2464   1.084       .  S
C2465      C2466   1.401       .  A
C2465      C2470   1.405       .  A
C2466      C2467   1.394       .  A
C2466      H2479   1.083       .  S
C2467      C2468   1.415       .  A
C2467      H2480   1.077       .  S
C2468      C2474   1.426       .  A
C2468      C2469   1.419       .  A
C2469      C2471   1.401       .  A
C2469      C2470   1.404       .  A
C2470      H2481   1.084       .  S
C2471      C2472   1.393       .  A
C2471      H2482   1.084       .  S
C2472      C2473   1.400       .  A
C2472      H2483   1.084       .  S
C2473      C2474   1.423       .  A
C2473      C2478   1.411       .  A
C2474      C2475   1.408       .  A
C2475      C2476   1.388       .  A
C2475      H2484   1.077       .  S
C2476      C2477   1.404       .  A
C2476      H2485   1.083       .  S
C2477      C2478   1.405       .  A
C2478      H2486   1.084       .  S
C2487      C2488   1.405   1_455  A
C2487      C2492   1.402       .  A
C2488      C2489   1.397       .  A
C2488      H2501   1.083       .  S
C2489      C2490   1.412   1_655  A
C2489      H2502   1.078       .  S
C2490      C2496   1.432   1_454  A
C2490      C2491   1.424       .  A
C2491      C2493   1.398       .  A
C2491      C2492   1.407       .  A
C2492      H2503   1.084       .  S
C2493      C2494   1.389   1_554  A
C2493      H2504   1.084       .  S
C2494      C2495   1.400       .  A
C2494      H2505   1.084       .  S
C2495      C2496   1.420   1_455  A
C2495      C2500   1.403       .  A
C2496      C2497   1.418       .  A
C2497      C2498   1.402       .  A
C2497      H2506   1.078       .  S
C2498      C2499   1.402       .  A
C2498      H2507   1.083       .  S
C2499      C2500   1.405   1_655  A
C2500      H2508   1.084       .  S
C2509      C2510   1.404       .  A
C2509      C2514   1.404       .  A
C2510      C2511   1.391       .  A
C2510      H2523   1.083       .  S
C2511      C2512   1.410       .  A
C2511      H2524   1.077       .  S
C2512      C2518   1.430       .  A
C2512      C2513   1.424       .  A
C2513      C2515   1.400       .  A
C2513      C2514   1.411       .  A
C2514      H2525   1.084       .  S
C2515      C2516   1.392       .  A
C2515      H2526   1.084       .  S
C2516      C2517   1.401       .  A
C2516      H2527   1.084       .  S
C2517      C2518   1.420       .  A
C2517      C2522   1.406       .  A
C2518      C2519   1.417       .  A
C2519      C2520   1.396       .  A
C2519      H2528   1.077       .  S
C2520      C2521   1.400       .  A
C2520      H2529   1.083       .  S
C2521      C2522   1.405       .  A
C2522      H2530   1.084       .  S
C2531      C2532   1.402       .  A
C2531      C2536   1.402       .  A
C2532      C2533   1.389       .  A
C2532      H2545   1.083       .  S
C2533      C2534   1.411       .  A
C2533      H2546   1.076       .  S
C2534      C2540   1.425       .  A
C2534      C2535   1.423       .  A
C2535      C2537   1.399       .  A
C2535      C2536   1.405       .  A
C2536      H2547   1.084       .  S
C2537      C2538   1.390       .  A
C2537      H2548   1.084       .  S
C2538      C2539   1.400       .  A
C2538      H2549   1.084       .  S
C2539      C2540   1.421       .  A
C2539      C2544   1.403       .  A
C2540      C2541   1.414       .  A
C2541      C2542   1.391       .  A
C2541      H2550   1.076       .  S
C2542      C2543   1.400       .  A
C2542      H2551   1.083       .  S
C2543      C2544   1.404       .  A
C2544      H2552   1.084       .  S
C2553      C2554   1.399       .  A
C2553      C2558   1.399       .  A
C2554      C2555   1.393       .  A
C2554      H2567   1.084       .  S
C2555      C2556   1.415       .  A
C2555      H2568   1.077       .  S
C2556      C2562   1.428       .  A
C2556      C2557   1.422       .  A
C2557      C2559   1.399       .  A
C2557      C2558   1.404       .  A
C2558      H2569   1.085       .  S
C2559      C2560   1.391       .  A
C2559      H2570   1.084       .  S
C2560      C2561   1.399       .  A
C2560      H2571   1.084       .  S
C2561      C2562   1.423       .  A
C2561      C2566   1.408       .  A
C2562      C2563   1.412       .  A
C2563      C2564   1.392       .  A
C2563      H2572   1.077       .  S
C2564      C2565   1.402       .  A
C2564      H2573   1.084       .  S
C2565      C2566   1.401       .  A
C2566      H2574   1.084       .  S
C2575      C2576   1.403       .  A
C2575      C2580   1.401       .  A
C2576      C2577   1.397       .  A
C2576      H2589   1.083       .  S
C2577      C2578   1.413       .  A
C2577      H2590   1.077       .  S
C2578      C2584   1.430       .  A
C2578      C2579   1.423       .  A
C2579      C2581   1.398       .  A
C2579      C2580   1.402       .  A
C2580      H2591   1.084       .  S
C2581      C2582   1.386       .  A
C2581      H2592   1.084       .  S
C2582      C2583   1.399       .  A
C2582      H2593   1.084       .  S
C2583      C2584   1.420       .  A
C2583      C2588   1.398       .  A
C2584      C2585   1.417       .  A
C2585      C2586   1.400       .  A
C2585      H2594   1.077       .  S
C2586      C2587   1.401       .  A
C2586      H2595   1.083       .  S
C2587      C2588   1.404       .  A
C2588      H2596   1.084       .  S
C2597      C2598   1.400       .  A
C2597      C2602   1.406       .  A
C2598      C2599   1.392       .  A
C2598      H2611   1.083       .  S
C2599      C2600   1.415       .  A
C2599      H2612   1.076       .  S
C2600      C2606   1.427       .  A
C2600      C2601   1.420       .  A
C2601      C2603   1.401       .  A
C2601      C2602   1.407       .  A
C2602      H2613   1.084       .  S
C2603      C2604   1.393       .  A
C2603      H2614   1.084       .  S
C2604      C2605   1.400       .  A
C2604      H2615   1.084       .  S
C2605      C2606   1.424       .  A
C2605      C2610   1.411       .  A
C2606      C2607   1.410       .  A
C2607      C2608   1.388       .  A
C2607      H2616   1.076       .  S
C2608      C2609   1.404       .  A
C2608      H2617   1.083       .  S
C2609      C2610   1.404       .  A
C2610      H2618   1.084       .  S
C2619      C2620   1.401       .  A
C2619      C2624   1.401       .  A
C2620      C2621   1.390       .  A
C2620      H2633   1.084       .  S
C2621      C2622   1.411       .  A
C2621      H2634   1.077       .  S
C2622      C2628   1.428       .  A
C2622      C2623   1.424       .  A
C2623      C2625   1.399       .  A
C2623      C2624   1.407       .  A
C2624      H2635   1.085       .  S
C2625      C2626   1.391       .  A
C2625      H2636   1.084       .  S
C2626      C2627   1.401       .  A
C2626      H2637   1.084       .  S
C2627      C2628   1.421       .  A
C2627      C2632   1.404       .  A
C2628      C2629   1.416       .  A
C2629      C2630   1.395       .  A
C2629      H2638   1.077       .  S
C2630      C2631   1.398       .  A
C2630      H2639   1.083       .  S
C2631      C2632   1.404       .  A
C2632      H2640   1.085       .  S
C2641      C2642   1.403       .  A
C2641      C2646   1.401       .  A
C2642      C2643   1.395       .  A
C2642      H2655   1.083       .  S
C2643      C2644   1.413       .  A
C2643      H2656   1.077       .  S
C2644      C2650   1.428       .  A
C2644      C2645   1.423       .  A
C2645      C2647   1.398       .  A
C2645      C2646   1.401       .  A
C2646      H2657   1.084       .  S
C2647      C2648   1.386       .  A
C2647      H2658   1.084       .  S
C2648      C2649   1.398       .  A
C2648      H2659   1.084       .  S
C2649      C2650   1.420       .  A
C2649      C2654   1.397       .  A
C2650      C2651   1.417       .  A
C2651      C2652   1.398       .  A
C2651      H2660   1.077       .  S
C2652      C2653   1.401       .  A
C2652      H2661   1.083       .  S
C2653      C2654   1.402       .  A
C2654      H2662   1.084       .  S
C2663      C2664   1.399       .  A
C2663      C2668   1.404       .  A
C2664      C2665   1.396       .  A
C2664      H2677   1.084       .  S
C2665      C2666   1.417       .  A
C2665      H2678   1.077       .  S
C2666      C2672   1.429       .  A
C2666      C2667   1.420       .  A
C2667      C2669   1.401       .  A
C2667      C2668   1.405       .  A
C2668      H2679   1.085       .  S
C2669      C2670   1.392       .  A
C2669      H2680   1.084       .  S
C2670      C2671   1.400       .  A
C2670      H2681   1.084       .  S
C2671      C2672   1.425       .  A
C2671      C2676   1.412       .  A
C2672      C2673   1.410       .  A
C2673      C2674   1.390       .  A
C2673      H2682   1.077       .  S
C2674      C2675   1.403       .  A
C2674      H2683   1.084       .  S
C2675      C2676   1.403       .  A
C2676      H2684   1.084       .  S
C2685      C2686   1.407       .  A
C2685      C2690   1.403       .  A
C2686      C2687   1.399       .  A
C2686      H2699   1.083       .  S
C2687      C2688   1.413       .  A
C2687      H2700   1.078       .  S
C2688      C2694   1.436   1_554  A
C2688      C2689   1.424       .  A
C2689      C2691   1.399       .  A
C2689      C2690   1.410       .  A
C2690      H2701   1.084       .  S
C2691      C2692   1.391   1_554  A
C2691      H2702   1.084       .  S
C2692      C2693   1.401       .  A
C2692      H2703   1.084       .  S
C2693      C2694   1.421       .  A
C2693      C2698   1.408       .  A
C2694      C2695   1.418       .  A
C2695      C2696   1.403       .  A
C2695      H2704   1.077       .  S
C2696      C2697   1.403       .  A
C2696      H2705   1.083       .  S
C2697      C2698   1.408       .  A
C2698      H2706   1.084       .  S
C2707      C2708   1.403       .  A
C2707      C2712   1.406       .  A
C2708      C2709   1.397       .  A
C2708      H2721   1.083       .  S
C2709      C2710   1.415       .  A
C2709      H2722   1.077       .  S
C2710      C2716   1.434       .  A
C2710      C2711   1.422       .  A
C2711      C2713   1.401       .  A
C2711      C2712   1.410       .  A
C2712      H2723   1.084       .  S
C2713      C2714   1.393       .  A
C2713      H2724   1.084       .  S
C2714      C2715   1.401       .  A
C2714      H2725   1.084   1_655  S
C2715      C2716   1.423       .  A
C2715      C2720   1.412       .  A
C2716      C2717   1.413       .  A
C2717      C2718   1.396       .  A
C2717      H2726   1.077       .  S
C2718      C2719   1.404       .  A
C2718      H2727   1.083       .  S
C2719      C2720   1.406       .  A
C2720      H2728   1.084   1_655  S
C2729      C2730   1.404       .  A
C2729      C2734   1.404       .  A
C2730      C2731   1.397       .  A
C2730      H2743   1.083       .  S
C2731      C2732   1.413       .  A
C2731      H2744   1.077       .  S
C2732      C2738   1.433       .  A
C2732      C2733   1.424       .  A
C2733      C2735   1.400       .  A
C2733      C2734   1.410       .  A
C2734      H2745   1.084       .  S
C2735      C2736   1.392       .  A
C2735      H2746   1.084       .  S
C2736      C2737   1.401       .  A
C2736      H2747   1.084       .  S
C2737      C2738   1.421       .  A
C2737      C2742   1.407       .  A
C2738      C2739   1.417       .  A
C2739      C2740   1.399       .  A
C2739      H2748   1.077       .  S
C2740      C2741   1.401       .  A
C2740      H2749   1.083       .  S
C2741      C2742   1.406       .  A
C2742      H2750   1.085       .  S
C2751      C2752   1.400       .  A
C2751      C2756   1.405       .  A
C2752      C2753   1.397       .  A
C2752      H2765   1.083       .  S
C2753      C2754   1.417       .  A
C2753      H2766   1.077       .  S
C2754      C2760   1.429       .  A
C2754      C2755   1.419       .  A
C2755      C2757   1.400       .  A
C2755      C2756   1.403       .  A
C2756      H2767   1.084   1_455  S
C2757      C2758   1.390       .  A
C2757      H2768   1.084       .  S
C2758      C2759   1.399       .  A
C2758      H2769   1.084       .  S
C2759      C2760   1.425       .  A
C2759      C2764   1.409       .  A
C2760      C2761   1.410       .  A
C2761      C2762   1.390       .  A
C2761      H2770   1.077       .  S
C2762      C2763   1.405       .  A
C2762      H2771   1.083       .  S
C2763      C2764   1.402       .  A
C2764      H2772   1.084       .  S
C2773      C2774   1.400       .  A
C2773      C2778   1.405       .  A
C2774      C2775   1.394       .  A
C2774      H2787   1.083       .  S
C2775      C2776   1.416       .  A
C2775      H2788   1.077       .  S
C2776      C2782   1.427       .  A
C2776      C2777   1.420       .  A
C2777      C2779   1.400       .  A
C2777      C2778   1.402       .  A
C2778      H2789   1.084       .  S
C2779      C2780   1.390       .  A
C2779      H2790   1.084       .  S
C2780      C2781   1.399       .  A
C2780      H2791   1.084       .  S
C2781      C2782   1.424       .  A
C2781      C2786   1.406       .  A
C2782      C2783   1.410       .  A
C2783      C2784   1.389       .  A
C2783      H2792   1.077       .  S
C2784      C2785   1.404       .  A
C2784      H2793   1.083       .  S
C2785      C2786   1.401       .  A
C2786      H2794   1.084       .  S
C2795      C2796   1.403       .  A
C2795      C2800   1.407       .  A
C2796      C2797   1.393       .  A
C2796      H2809   1.083       .  S
C2797      C2798   1.413       .  A
C2797      H2810   1.076       .  S
C2798      C2804   1.431       .  A
C2798      C2799   1.422       .  A
C2799      C2801   1.401   1_545  A
C2799      C2800   1.412       .  A
C2800      H2811   1.084   1_545  S
C2801      C2802   1.394   1_565  A
C2801      H2812   1.084       .  S
C2802      C2803   1.401       .  A
C2802      H2813   1.084   1_545  S
C2803      C2804   1.422       .  A
C2803      C2808   1.410       .  A
C2804      C2805   1.414       .  A
C2805      C2806   1.394       .  A
C2805      H2814   1.077       .  S
C2806      C2807   1.402       .  A
C2806      H2815   1.083       .  S
C2807      C2808   1.406       .  A
C2808      H2816   1.084       .  S
C2817      C2818   1.407       .  A
C2817      C2822   1.404       .  A
C2818      C2819   1.400       .  A
C2818      H2831   1.083       .  S
C2819      C2820   1.413       .  A
C2819      H2832   1.078       .  S
C2820      C2826   1.436       .  A
C2820      C2821   1.424       .  A
C2821      C2823   1.399       .  A
C2821      C2822   1.410       .  A
C2822      H2833   1.084       .  S
C2823      C2824   1.390       .  A
C2823      H2834   1.084       .  S
C2824      C2825   1.400       .  A
C2824      H2835   1.084       .  S
C2825      C2826   1.421       .  A
C2825      C2830   1.405       .  A
C2826      C2827   1.418       .  A
C2827      C2828   1.403       .  A
C2827      H2836   1.078       .  S
C2828      C2829   1.403       .  A
C2828      H2837   1.083       .  S
C2829      C2830   1.406       .  A
C2830      H2838   1.084       .  S
C2839      C2840   1.404       .  A
C2839      C2844   1.400       .  A
C2840      C2841   1.398       .  A
C2840      H2853   1.083       .  S
C2841      C2842   1.414       .  A
C2841      H2854   1.078       .  S
C2842      C2848   1.431       .  A
C2842      C2843   1.424       .  A
C2843      C2845   1.397       .  A
C2843      C2844   1.403       .  A
C2844      H2855   1.084       .  S
C2845      C2846   1.386       .  A
C2845      H2856   1.084       .  S
C2846      C2847   1.399       .  A
C2846      H2857   1.084       .  S
C2847      C2848   1.420       .  A
C2847      C2852   1.399       .  A
C2848      C2849   1.418       .  A
C2849      C2850   1.402       .  A
C2849      H2858   1.077       .  S
C2850      C2851   1.400       .  A
C2850      H2859   1.083       .  S
C2851      C2852   1.406       .  A
C2852      H2860   1.084       .  S
C2861      C2862   1.403       .  A
C2861      C2866   1.399       .  A
C2862      C2863   1.394       .  A
C2862      H2875   1.083       .  S
C2863      C2864   1.412       .  A
C2863      H2876   1.077       .  S
C2864      C2870   1.427       .  A
C2864      C2865   1.424       .  A
C2865      C2867   1.397       .  A
C2865      C2866   1.400       .  A
C2866      H2877   1.085       .  S
C2867      C2868   1.385       .  A
C2867      H2878   1.084       .  S
C2868      C2869   1.398       .  A
C2868      H2879   1.084       .  S
C2869      C2870   1.419       .  A
C2869      C2874   1.394       .  A
C2870      C2871   1.418       .  A
C2871      C2872   1.400   1_455  A
C2871      H2880   1.077       .  S
C2872      C2873   1.400       .  A
C2872      H2881   1.083       .  S
C2873      C2874   1.403   1_655  A
C2874      H2882   1.084   1_455  S
C2883      C2884   1.401   1_545  A
C2883      C2888   1.406   1_545  A
C2884      C2885   1.403       .  A
C2884      H2897   1.083   1_565  S
C2885      C2886   1.419       .  A
C2885      H2898   1.078       .  S
C2886      C2892   1.431       .  A
C2886      C2887   1.419       .  A
C2887      C2889   1.400       .  A
C2887      C2888   1.399       .  A
C2888      H2899   1.084       .  S
C2889      C2890   1.387       .  A
C2889      H2900   1.084       .  S
C2890      C2891   1.397       .  A
C2890      H2901   1.084       .  S
C2891      C2892   1.424       .  A
C2891      C2896   1.405       .  A
C2892      C2893   1.412       .  A
C2893      C2894   1.397       .  A
C2893      H2902   1.078       .  S
C2894      C2895   1.406       .  A
C2894      H2903   1.083       .  S
C2895      C2896   1.401       .  A
C2896      H2904   1.084       .  S
C2905      C2906   1.398       .  A
C2905      C2910   1.407       .  A
C2906      C2907   1.389       .  A
C2906      H2919   1.083       .  S
C2907      C2908   1.414       .  A
C2907      H2920   1.077       .  S
C2908      C2914   1.422       .  A
C2908      C2909   1.419       .  A
C2909      C2911   1.402       .  A
C2909      C2910   1.404       .  A
C2910      H2921   1.084       .  S
C2911      C2912   1.393       .  A
C2911      H2922   1.084       .  S
C2912      C2913   1.400       .  A
C2912      H2923   1.084       .  S
C2913      C2914   1.423       .  A
C2913      C2918   1.408       .  A
C2914      C2915   1.408       .  A
C2915      C2916   1.384       .  A
C2915      H2924   1.076       .  S
C2916      C2917   1.402       .  A
C2916      H2925   1.083       .  S
C2917      C2918   1.403       .  A
C2918      H2926   1.084       .  S
C2927      C2928   1.403       .  A
C2927      C2932   1.402       .  A
C2928      C2929   1.395       .  A
C2928      H2941   1.083   1_565  S
C2929      C2930   1.412       .  A
C2929      H2942   1.077       .  S
C2930      C2936   1.430       .  A
C2930      C2931   1.424       .  A
C2931      C2933   1.399       .  A
C2931      C2932   1.406       .  A
C2932      H2943   1.084       .  S
C2933      C2934   1.388       .  A
C2933      H2944   1.084       .  S
C2934      C2935   1.400       .  A
C2934      H2945   1.084       .  S
C2935      C2936   1.419       .  A
C2935      C2940   1.400       .  A
C2936      C2937   1.418       .  A
C2937      C2938   1.400   1_455  A
C2937      H2946   1.077       .  S
C2938      C2939   1.400       .  A
C2938      H2947   1.083       .  S
C2939      C2940   1.406   1_655  A
C2940      H2948   1.084       .  S
C2949      C2950   1.403       .  A
C2949      C2954   1.400       .  A
C2950      C2951   1.395       .  A
C2950      H2963   1.083       .  S
C2951      C2952   1.414       .  A
C2951      H2964   1.077       .  S
C2952      C2958   1.428       .  A
C2952      C2953   1.423       .  A
C2953      C2955   1.397       .  A
C2953      C2954   1.400       .  A
C2954      H2965   1.084       .  S
C2955      C2956   1.386       .  A
C2955      H2966   1.084       .  S
C2956      C2957   1.398       .  A
C2956      H2967   1.084       .  S
C2957      C2958   1.421       .  A
C2957      C2962   1.398       .  A
C2958      C2959   1.416       .  A
C2959      C2960   1.397       .  A
C2959      H2968   1.077       .  S
C2960      C2961   1.400       .  A
C2960      H2969   1.083       .  S
C2961      C2962   1.402       .  A
C2962      H2970   1.085       .  S
C2971      C2972   1.402       .  A
C2971      C2976   1.407       .  A
C2972      C2973   1.400       .  A
C2972      H2985   1.083       .  S
C2973      C2974   1.416       .  A
C2973      H2986   1.077       .  S
C2974      C2980   1.434       .  A
C2974      C2975   1.421       .  A
C2975      C2977   1.401       .  A
C2975      C2976   1.407       .  A
C2976      H2987   1.084       .  S
C2977      C2978   1.391       .  A
C2977      H2988   1.084       .  S
C2978      C2979   1.400       .  A
C2978      H2989   1.084       .  S
C2979      C2980   1.423       .  A
C2979      C2984   1.409       .  A
C2980      C2981   1.414       .  A
C2981      C2982   1.398       .  A
C2981      H2990   1.077       .  S
C2982      C2983   1.403       .  A
C2982      H2991   1.083       .  S
C2983      C2984   1.405       .  A
C2984      H2992   1.084       .  S
C2993      C2994   1.405       .  A
C2993      C2998   1.399       .  A
C2994      C2995   1.396       .  A
C2994      H3007   1.083   1_455  S
C2995      C2996   1.413       .  A
C2995      H3008   1.077       .  S
C2996      C3002   1.430       .  A
C2996      C2997   1.424       .  A
C2997      C2999   1.397       .  A
C2997      C2998   1.402       .  A
C2998      H3009   1.084       .  S
C2999      C3000   1.386       .  A
C2999      H3010   1.084       .  S
C3000      C3001   1.399       .  A
C3000      H3011   1.084       .  S
C3001      C3002   1.420       .  A
C3001      C3006   1.398       .  A
C3002      C3003   1.418       .  A
C3003      C3004   1.401   1_565  A
C3003      H3012   1.077       .  S
C3004      C3005   1.401       .  A
C3004      H3013   1.083       .  S
C3005      C3006   1.403   1_545  A
C3006      H3014   1.085       .  S
C3015      C3016   1.397       .  A
C3015      C3020   1.408       .  A
C3016      C3017   1.390       .  A
C3016      H3029   1.083       .  S
C3017      C3018   1.415       .  A
C3017      H3030   1.077       .  S
C3018      C3024   1.424       .  A
C3018      C3019   1.419       .  A
C3019      C3021   1.403       .  A
C3019      C3020   1.408       .  A
C3020      H3031   1.084       .  S
C3021      C3022   1.397       .  A
C3021      H3032   1.084       .  S
C3022      C3023   1.402       .  A
C3022      H3033   1.084       .  S
C3023      C3024   1.423       .  A
C3023      C3028   1.415       .  A
C3024      C3025   1.407       .  A
C3025      C3026   1.385       .  A
C3025      H3034   1.077       .  S
C3026      C3027   1.403       .  A
C3026      H3035   1.084       .  S
C3027      C3028   1.406       .  A
C3028      H3036   1.084       .  S
C3037      C3038   1.403       .  A
C3037      C3042   1.401       .  A
C3038      C3039   1.390       .  A
C3038      H3051   1.084       .  S
C3039      C3040   1.411       .  A
C3039      H3052   1.077       .  S
C3040      C3046   1.428       .  A
C3040      C3041   1.424       .  A
C3041      C3043   1.399       .  A
C3041      C3042   1.409       .  A
C3042      H3053   1.084       .  S
C3043      C3044   1.391       .  A
C3043      H3054   1.084       .  S
C3044      C3045   1.400       .  A
C3044      H3055   1.084       .  S
C3045      C3046   1.420       .  A
C3045      C3050   1.405       .  A
C3046      C3047   1.415       .  A
C3047      C3048   1.395       .  A
C3047      H3056   1.077       .  S
C3048      C3049   1.401       .  A
C3048      H3057   1.083       .  S
C3049      C3050   1.404       .  A
C3050      H3058   1.084       .  S
C3059      C3060   1.399       .  A
C3059      C3064   1.406       .  A
C3060      C3061   1.394       .  A
C3060      H3073   1.083       .  S
C3061      C3062   1.416       .  A
C3061      H3074   1.076       .  S
C3062      C3068   1.430       .  A
C3062      C3063   1.421       .  A
C3063      C3065   1.402       .  A
C3063      C3064   1.409       .  A
C3064      H3075   1.085       .  S
C3065      C3066   1.394       .  A
C3065      H3076   1.084       .  S
C3066      C3067   1.400       .  A
C3066      H3077   1.084       .  S
C3067      C3068   1.424       .  A
C3067      C3072   1.412       .  A
C3068      C3069   1.411       .  A
C3069      C3070   1.390       .  A
C3069      H3078   1.077       .  S
C3070      C3071   1.404       .  A
C3070      H3079   1.084       .  S
C3071      C3072   1.403       .  A
C3072      H3080   1.084       .  S
C3081      C3082   1.404       .  A
C3081      C3086   1.403       .  A
C3082      C3083   1.394       .  A
C3082      H3095   1.083       .  S
C3083      C3084   1.412       .  A
C3083      H3096   1.077       .  S
C3084      C3090   1.430       .  A
C3084      C3085   1.423       .  A
C3085      C3087   1.399       .  A
C3085      C3086   1.408       .  A
C3086      H3097   1.084       .  S
C3087      C3088   1.390       .  A
C3087      H3098   1.084       .  S
C3088      C3089   1.400       .  A
C3088      H3099   1.084       .  S
C3089      C3090   1.420       .  A
C3089      C3094   1.404       .  A
C3090      C3091   1.416       .  A
C3091      C3092   1.398       .  A
C3091      H3100   1.078       .  S
C3092      C3093   1.403       .  A
C3092      H3101   1.083       .  S
C3093      C3094   1.405       .  A
C3094      H3102   1.084       .  S
C3103      C3104   1.404       .  A
C3103      C3108   1.404       .  A
C3104      C3105   1.399       .  A
C3104      H3117   1.083       .  S
C3105      C3106   1.415       .  A
C3105      H3118   1.078       .  S
C3106      C3112   1.433   1_565  A
C3106      C3107   1.423       .  A
C3107      C3109   1.399       .  A
C3107      C3108   1.405       .  A
C3108      H3119   1.084       .  S
C3109      C3110   1.388   1_565  A
C3109      H3120   1.084       .  S
C3110      C3111   1.399       .  A
C3110      H3121   1.084       .  S
C3111      C3112   1.421       .  A
C3111      C3116   1.403       .  A
C3112      C3113   1.416       .  A
C3113      C3114   1.400       .  A
C3113      H3122   1.078       .  S
C3114      C3115   1.403       .  A
C3114      H3123   1.083       .  S
C3115      C3116   1.404       .  A
C3116      H3124   1.084       .  S
C3125      C3126   1.402       .  A
C3125      C3130   1.405       .  A
C3126      C3127   1.399       .  A
C3126      H3139   1.083       .  S
C3127      C3128   1.416       .  A
C3127      H3140   1.078       .  S
C3128      C3134   1.431       .  A
C3128      C3129   1.420       .  A
C3129      C3131   1.400       .  A
C3129      C3130   1.404       .  A
C3130      H3141   1.084       .  S
C3131      C3132   1.390       .  A
C3131      H3142   1.084       .  S
C3132      C3133   1.399       .  A
C3132      H3143   1.084       .  S
C3133      C3134   1.423       .  A
C3133      C3138   1.407       .  A
C3134      C3135   1.412       .  A
C3135      C3136   1.396       .  A
C3135      H3144   1.077       .  S
C3136      C3137   1.404       .  A
C3136      H3145   1.083       .  S
C3137      C3138   1.404       .  A
C3138      H3146   1.084       .  S
C3147      C3148   1.399   1_455  A
C3147      C3152   1.404   1_455  A
C3148      C3149   1.399       .  A
C3148      H3161   1.083   1_655  S
C3149      C3150   1.418       .  A
C3149      H3162   1.077       .  S
C3150      C3156   1.428       .  A
C3150      C3151   1.419       .  A
C3151      C3153   1.399       .  A
C3151      C3152   1.396       .  A
C3152      H3163   1.085       .  S
C3153      C3154   1.386       .  A
C3153      H3164   1.084       .  S
C3154      C3155   1.397       .  A
C3154      H3165   1.084       .  S
C3155      C3156   1.424       .  A
C3155      C3160   1.402       .  A
C3156      C3157   1.412       .  A
C3157      C3158   1.395       .  A
C3157      H3166   1.077       .  S
C3158      C3159   1.405       .  A
C3158      H3167   1.083       .  S
C3159      C3160   1.400       .  A
C3160      H3168   1.084       .  S
C3169      C3170   1.402       .  A
C3169      C3174   1.402       .  A
C3170      C3171   1.394       .  A
C3170      H3183   1.083       .  S
C3171      C3172   1.414       .  A
C3171      H3184   1.077       .  S
C3172      C3178   1.428       .  A
C3172      C3173   1.422       .  A
C3173      C3175   1.399       .  A
C3173      C3174   1.402       .  A
C3174      H3185   1.084       .  S
C3175      C3176   1.388       .  A
C3175      H3186   1.084       .  S
C3176      C3177   1.400       .  A
C3176      H3187   1.084       .  S
C3177      C3178   1.421       .  A
C3177      C3182   1.402       .  A
C3178      C3179   1.415       .  A
C3179      C3180   1.397       .  A
C3179      H3188   1.077       .  S
C3180      C3181   1.401       .  A
C3180      H3189   1.083       .  S
C3181      C3182   1.406       .  A
C3182      H3190   1.084       .  S
C3191      C3192   1.405       .  A
C3191      C3196   1.401       .  A
C3192      C3193   1.398       .  A
C3192      H3205   1.083       .  S
C3193      C3194   1.413       .  A
C3193      H3206   1.078       .  S
C3194      C3200   1.433       .  A
C3194      C3195   1.424       .  A
C3195      C3197   1.398       .  A
C3195      C3196   1.405       .  A
C3196      H3207   1.084       .  S
C3197      C3198   1.387       .  A
C3197      H3208   1.084       .  S
C3198      C3199   1.399       .  A
C3198      H3209   1.084       .  S
C3199      C3200   1.420       .  A
C3199      C3204   1.400       .  A
C3200      C3201   1.418       .  A
C3201      C3202   1.403       .  A
C3201      H3210   1.078       .  S
C3202      C3203   1.402       .  A
C3202      H3211   1.083       .  S
C3203      C3204   1.404       .  A
C3204      H3212   1.084       .  S
C3213      C3214   1.399       .  A
C3213      C3218   1.405       .  A
C3214      C3215   1.391       .  A
C3214      H3227   1.083       .  S
C3215      C3216   1.414       .  A
C3215      H3228   1.076       .  S
C3216      C3222   1.425       .  A
C3216      C3217   1.420       .  A
C3217      C3219   1.400       .  A
C3217      C3218   1.403       .  A
C3218      H3229   1.084   1_655  S
C3219      C3220   1.391       .  A
C3219      H3230   1.084       .  S
C3220      C3221   1.400       .  A
C3220      H3231   1.084       .  S
C3221      C3222   1.423       .  A
C3221      C3226   1.407       .  A
C3222      C3223   1.411       .  A
C3223      C3224   1.389       .  A
C3223      H3232   1.076       .  S
C3224      C3225   1.402       .  A
C3224      H3233   1.083       .  S
C3225      C3226   1.403       .  A
C3226      H3234   1.084       .  S
C3235      C3236   1.404       .  A
C3235      C3240   1.405       .  A
C3236      C3237   1.395       .  A
C3236      H3249   1.083       .  S
C3237      C3238   1.412       .  A
C3237      H3250   1.077       .  S
C3238      C3244   1.433       .  A
C3238      C3239   1.424       .  A
C3239      C3241   1.400       .  A
C3239      C3240   1.411       .  A
C3240      H3251   1.084       .  S
C3241      C3242   1.392       .  A
C3241      H3252   1.084       .  S
C3242      C3243   1.401       .  A
C3242      H3253   1.084       .  S
C3243      C3244   1.420       .  A
C3243      C3248   1.406       .  A
C3244      C3245   1.417       .  A
C3245      C3246   1.400       .  A
C3245      H3254   1.077       .  S
C3246      C3247   1.402       .  A
C3246      H3255   1.083       .  S
C3247      C3248   1.407       .  A
C3248      H3256   1.084       .  S
C3257      C3258   1.405       .  A
C3257      C3262   1.404       .  A
C3258      C3259   1.402       .  A
C3258      H3271   1.083       .  S
C3259      C3260   1.415       .  A
C3259      H3272   1.078   1_455  S
C3260      C3266   1.437   1_455  A
C3260      C3261   1.423       .  A
C3261      C3263   1.399       .  A
C3261      C3262   1.408       .  A
C3262      H3273   1.084       .  S
C3263      C3264   1.389   1_455  A
C3263      H3274   1.084       .  S
C3264      C3265   1.400       .  A
C3264      H3275   1.084       .  S
C3265      C3266   1.422       .  A
C3265      C3270   1.407       .  A
C3266      C3267   1.417       .  A
C3267      C3268   1.404       .  A
C3267      H3276   1.078       .  S
C3268      C3269   1.405       .  A
C3268      H3277   1.083       .  S
C3269      C3270   1.405       .  A
C3270      H3278   1.084       .  S
C3279      C3280   1.404   1_565  A
C3279      C3284   1.402       .  A
C3280      C3281   1.388       .  A
C3280      H3293   1.083       .  S
C3281      C3282   1.409       .  A
C3281      H3294   1.077       .  S
C3282      C3288   1.426       .  A
C3282      C3283   1.424       .  A
C3283      C3285   1.400       .  A
C3283      C3284   1.410   1_545  A
C3284      H3295   1.084       .  S
C3285      C3286   1.392       .  A
C3285      H3296   1.084       .  S
C3286      C3287   1.401       .  A
C3286      H3297   1.084       .  S
C3287      C3288   1.419       .  A
C3287      C3292   1.403       .  A
C3288      C3289   1.416       .  A
C3289      C3290   1.394       .  A
C3289      H3298   1.077       .  S
C3290      C3291   1.399       .  A
C3290      H3299   1.084       .  S
C3291      C3292   1.404       .  A
C3292      H3300   1.084   1_655  S
C3301      C3302   1.403       .  A
C3301      C3306   1.401       .  A
C3302      C3303   1.393       .  A
C3302      H3315   1.083       .  S
C3303      C3304   1.413       .  A
C3303      H3316   1.077       .  S
C3304      C3310   1.427       .  A
C3304      C3305   1.422       .  A
C3305      C3307   1.398       .  A
C3305      C3306   1.401       .  A
C3306      H3317   1.084       .  S
C3307      C3308   1.387       .  A
C3307      H3318   1.084       .  S
C3308      C3309   1.399       .  A
C3308      H3319   1.084       .  S
C3309      C3310   1.421       .  A
C3309      C3314   1.399       .  A
C3310      C3311   1.415       .  A
C3311      C3312   1.395       .  A
C3311      H3320   1.077       .  S
C3312      C3313   1.401       .  A
C3312      H3321   1.083       .  S
C3313      C3314   1.402       .  A
C3314      H3322   1.084       .  S
C3323      C3324   1.404       .  A
C3323      C3328   1.400   1_565  A
C3324      C3325   1.394   1_565  A
C3324      H3337   1.083       .  S
C3325      C3326   1.411       .  A
C3325      H3338   1.077       .  S
C3326      C3332   1.430       .  A
C3326      C3327   1.425       .  A
C3327      C3329   1.397       .  A
C3327      C3328   1.405       .  A
C3328      H3339   1.084       .  S
C3329      C3330   1.387       .  A
C3329      H3340   1.084       .  S
C3330      C3331   1.400       .  A
C3330      H3341   1.084       .  S
C3331      C3332   1.418       .  A
C3331      C3336   1.398       .  A
C3332      C3333   1.419       .  A
C3333      C3334   1.402       .  A
C3333      H3342   1.077       .  S
C3334      C3335   1.400       .  A
C3334      H3343   1.083       .  S
C3335      C3336   1.406       .  A
C3336      H3344   1.084       .  S
C3345      C3346   1.401       .  A
C3345      C3350   1.405       .  A
C3346      C3347   1.398       .  A
C3346      H3359   1.083       .  S
C3347      C3348   1.416       .  A
C3347      H3360   1.077       .  S
C3348      C3354   1.430       .  A
C3348      C3349   1.421       .  A
C3349      C3351   1.399       .  A
C3349      C3350   1.402       .  A
C3350      H3361   1.084       .  S
C3351      C3352   1.388       .  A
C3351      H3362   1.084       .  S
C3352      C3353   1.398       .  A
C3352      H3363   1.084       .  S
C3353      C3354   1.423       .  A
C3353      C3358   1.403       .  A
C3354      C3355   1.414       .  A
C3355      C3356   1.396       .  A
C3355      H3364   1.077       .  S
C3356      C3357   1.403       .  A
C3356      H3365   1.083       .  S
C3357      C3358   1.401       .  A
C3358      H3366   1.084       .  S
C3367      C3368   1.405       .  A
C3367      C3372   1.402       .  A
C3368      C3369   1.399       .  A
C3368      H3381   1.083   1_545  S
C3369      C3370   1.414       .  A
C3369      H3382   1.078       .  S
C3370      C3376   1.432       .  A
C3370      C3371   1.423       .  A
C3371      C3373   1.398       .  A
C3371      C3372   1.404       .  A
C3372      H3383   1.084       .  S
C3373      C3374   1.387       .  A
C3373      H3384   1.084       .  S
C3374      C3375   1.399       .  A
C3374      H3385   1.084       .  S
C3375      C3376   1.421       .  A
C3375      C3380   1.399       .  A
C3376      C3377   1.418       .  A
C3377      C3378   1.402   1_655  A
C3377      H3386   1.077       .  S
C3378      C3379   1.401       .  A
C3378      H3387   1.083       .  S
C3379      C3380   1.403   1_455  A
C3380      H3388   1.085       .  S
C3389      C3390   1.403       .  A
C3389      C3394   1.399       .  A
C3390      C3391   1.397       .  A
C3390      H3403   1.083       .  S
C3391      C3392   1.413       .  A
C3391      H3404   1.078       .  S
C3392      C3398   1.430       .  A
C3392      C3393   1.424       .  A
C3393      C3395   1.397       .  A
C3393      C3394   1.401       .  A
C3394      H3405   1.085       .  S
C3395      C3396   1.386       .  A
C3395      H3406   1.084       .  S
C3396      C3397   1.399       .  A
C3396      H3407   1.084       .  S
C3397      C3398   1.419       .  A
C3397      C3402   1.397       .  A
C3398      C3399   1.419       .  A
C3399      C3400   1.403       .  A
C3399      H3408   1.078       .  S
C3400      C3401   1.401       .  A
C3400      H3409   1.083       .  S
C3401      C3402   1.405       .  A
C3402      H3410   1.084       .  S
C3411      C3412   1.403       .  A
C3411      C3416   1.400       .  A
C3412      C3413   1.395       .  A
C3412      H3425   1.083       .  S
C3413      C3414   1.413       .  A
C3413      H3426   1.077       .  S
C3414      C3420   1.429       .  A
C3414      C3415   1.423       .  A
C3415      C3417   1.397       .  A
C3415      C3416   1.401       .  A
C3416      H3427   1.085       .  S
C3417      C3418   1.387       .  A
C3417      H3428   1.084       .  S
C3418      C3419   1.399       .  A
C3418      H3429   1.084       .  S
C3419      C3420   1.420       .  A
C3419      C3424   1.400       .  A
C3420      C3421   1.417       .  A
C3421      C3422   1.399   1_545  A
C3421      H3430   1.077       .  S
C3422      C3423   1.401       .  A
C3422      H3431   1.083       .  S
C3423      C3424   1.404   1_565  A
C3424      H3432   1.084   1_545  S
C3433      C3434   1.404       .  A
C3433      C3438   1.400       .  A
C3434      C3435   1.396       .  A
C3434      H3447   1.083       .  S
C3435      C3436   1.412       .  A
C3435      H3448   1.077       .  S
C3436      C3442   1.430       .  A
C3436      C3437   1.425       .  A
C3437      C3439   1.397       .  A
C3437      C3438   1.404       .  A
C3438      H3449   1.085       .  S
C3439      C3440   1.387       .  A
C3439      H3450   1.084       .  S
C3440      C3441   1.399       .  A
C3440      H3451   1.084       .  S
C3441      C3442   1.419       .  A
C3441      C3446   1.397       .  A
C3442      C3443   1.419       .  A
C3443      C3444   1.401       .  A
C3443      H3452   1.077       .  S
C3444      C3445   1.400       .  A
C3444      H3453   1.083       .  S
C3445      C3446   1.405       .  A
C3446      H3454   1.085       .  S
C3455      C3456   1.407       .  A
C3455      C3460   1.403       .  A
C3456      C3457   1.400       .  A
C3456      H3469   1.083       .  S
C3457      C3458   1.413       .  A
C3457      H3470   1.078       .  S
C3458      C3464   1.434       .  A
C3458      C3459   1.423       .  A
C3459      C3461   1.399       .  A
C3459      C3460   1.408       .  A
C3460      H3471   1.084       .  S
C3461      C3462   1.390       .  A
C3461      H3472   1.084       .  S
C3462      C3463   1.400       .  A
C3462      H3473   1.084       .  S
C3463      C3464   1.420       .  A
C3463      C3468   1.404       .  A
C3464      C3465   1.417       .  A
C3465      C3466   1.402       .  A
C3465      H3474   1.078       .  S
C3466      C3467   1.403       .  A
C3466      H3475   1.083       .  S
C3467      C3468   1.405       .  A
C3468      H3476   1.084       .  S
C3477      C3478   1.403       .  A
C3477      C3482   1.405       .  A
C3478      C3479   1.401       .  A
C3478      H3491   1.083       .  S
C3479      C3480   1.416       .  A
C3479      H3492   1.077       .  S
C3480      C3486   1.434       .  A
C3480      C3481   1.422       .  A
C3481      C3483   1.399       .  A
C3481      C3482   1.404       .  A
C3482      H3493   1.084       .  S
C3483      C3484   1.389       .  A
C3483      H3494   1.084       .  S
C3484      C3485   1.399       .  A
C3484      H3495   1.084       .  S
C3485      C3486   1.422       .  A
C3485      C3490   1.406       .  A
C3486      C3487   1.415       .  A
C3487      C3488   1.401       .  A
C3487      H3496   1.077       .  S
C3488      C3489   1.404       .  A
C3488      H3497   1.083       .  S
C3489      C3490   1.405       .  A
C3490      H3498   1.084       .  S
C3499      C3500   1.403       .  A
C3499      C3504   1.405       .  A
C3500      C3501   1.396       .  A
C3500      H3513   1.083       .  S
C3501      C3502   1.414       .  A
C3501      H3514   1.077       .  S
C3502      C3508   1.434       .  A
C3502      C3503   1.423       .  A
C3503      C3505   1.400       .  A
C3503      C3504   1.410       .  A
C3504      H3515   1.084       .  S
C3505      C3506   1.392       .  A
C3505      H3516   1.084       .  S
C3506      C3507   1.402       .  A
C3506      H3517   1.084       .  S
C3507      C3508   1.421       .  A
C3507      C3512   1.410       .  A
C3508      C3509   1.416       .  A
C3509      C3510   1.400       .  A
C3509      H3518   1.077   1_455  S
C3510      C3511   1.403       .  A
C3510      H3519   1.083   1_455  S
C3511      C3512   1.409       .  A
C3512      H3520   1.084       .  S
C3521      C3522   1.401       .  A
C3521      C3526   1.408   1_455  A
C3522      C3523   1.397       .  A
C3522      H3535   1.083       .  S
C3523      C3524   1.415   1_455  A
C3523      H3536   1.077       .  S
C3524      C3530   1.433       .  A
C3524      C3525   1.421       .  A
C3525      C3527   1.401       .  A
C3525      C3526   1.409       .  A
C3526      H3537   1.084       .  S
C3527      C3528   1.393       .  A
C3527      H3538   1.084       .  S
C3528      C3529   1.400       .  A
C3528      H3539   1.084       .  S
C3529      C3530   1.423       .  A
C3529      C3534   1.410       .  A
C3530      C3531   1.414   1_655  A
C3531      C3532   1.396       .  A
C3531      H3540   1.077       .  S
C3532      C3533   1.404   1_455  A
C3532      H3541   1.083       .  S
C3533      C3534   1.406       .  A
C3534      H3542   1.084       .  S
C3543      C3544   1.402       .  A
C3543      C3548   1.404       .  A
C3544      C3545   1.387       .  A
C3544      H3557   1.083       .  S
C3545      C3546   1.411       .  A
C3545      H3558   1.076       .  S
C3546      C3552   1.424       .  A
C3546      C3547   1.422       .  A
C3547      C3549   1.401       .  A
C3547      C3548   1.408       .  A
C3548      H3559   1.084       .  S
C3549      C3550   1.392       .  A
C3549      H3560   1.084       .  S
C3550      C3551   1.400       .  A
C3550      H3561   1.084       .  S
C3551      C3552   1.421       .  A
C3551      C3556   1.405       .  A
C3552      C3553   1.413       .  A
C3553      C3554   1.388       .  A
C3553      H3562   1.076       .  S
C3554      C3555   1.398       .  A
C3554      H3563   1.083       .  S
C3555      C3556   1.403       .  A
C3556      H3564   1.085       .  S
C3565      C3566   1.403       .  A
C3565      C3570   1.402       .  A
C3566      C3567   1.394       .  A
C3566      H3579   1.083       .  S
C3567      C3568   1.412       .  A
C3567      H3580   1.077       .  S
C3568      C3574   1.428       .  A
C3568      C3569   1.423       .  A
C3569      C3571   1.399       .  A
C3569      C3570   1.405       .  A
C3570      H3581   1.084       .  S
C3571      C3572   1.389       .  A
C3571      H3582   1.084       .  S
C3572      C3573   1.400       .  A
C3572      H3583   1.084       .  S
C3573      C3574   1.420       .  A
C3573      C3578   1.400       .  A
C3574      C3575   1.417       .  A
C3575      C3576   1.397       .  A
C3575      H3584   1.077       .  S
C3576      C3577   1.399       .  A
C3576      H3585   1.083       .  S
C3577      C3578   1.405       .  A
C3578      H3586   1.085       .  S
C3587      C3588   1.404       .  A
C3587      C3592   1.405       .  A
C3588      C3589   1.392       .  A
C3588      H3601   1.083       .  S
C3589      C3590   1.412       .  A
C3589      H3602   1.077       .  S
C3590      C3596   1.429       .  A
C3590      C3591   1.422       .  A
C3591      C3593   1.401       .  A
C3591      C3592   1.410       .  A
C3592      H3603   1.084   1_565  S
C3593      C3594   1.393       .  A
C3593      H3604   1.084   1_565  S
C3594      C3595   1.401       .  A
C3594      H3605   1.084       .  S
C3595      C3596   1.422       .  A
C3595      C3600   1.408       .  A
C3596      C3597   1.414       .  A
C3597      C3598   1.393       .  A
C3597      H3606   1.077       .  S
C3598      C3599   1.400       .  A
C3598      H3607   1.083       .  S
C3599      C3600   1.404       .  A
C3600      H3608   1.084       .  S
C3609      C3610   1.402       .  A
C3609      C3614   1.407   1_565  A
C3610      C3611   1.399       .  A
C3610      H3623   1.083       .  S
C3611      C3612   1.416       .  A
C3611      H3624   1.077       .  S
C3612      C3618   1.432       .  A
C3612      C3613   1.420   1_565  A
C3613      C3615   1.401       .  A
C3613      C3614   1.406       .  A
C3614      H3625   1.084       .  S
C3615      C3616   1.391       .  A
C3615      H3626   1.084       .  S
C3616      C3617   1.399       .  A
C3616      H3627   1.084       .  S
C3617      C3618   1.423   1_545  A
C3617      C3622   1.409       .  A
C3618      C3619   1.412       .  A
C3619      C3620   1.396       .  A
C3619      H3628   1.078       .  S
C3620      C3621   1.406   1_565  A
C3620      H3629   1.083       .  S
C3621      C3622   1.403       .  A
C3622      H3630   1.084       .  S
C3631      C3632   1.406       .  A
C3631      C3636   1.399       .  A
C3632      C3633   1.398       .  A
C3632      H3645   1.083       .  S
C3633      C3634   1.412       .  A
C3633      H3646   1.078       .  S
C3634      C3640   1.430       .  A
C3634      C3635   1.424       .  A
C3635      C3637   1.397       .  A
C3635      C3636   1.402       .  A
C3636      H3647   1.084       .  S
C3637      C3638   1.385       .  A
C3637      H3648   1.084       .  S
C3638      C3639   1.398       .  A
C3638      H3649   1.084       .  S
C3639      C3640   1.419       .  A
C3639      C3644   1.395       .  A
C3640      C3641   1.419       .  A
C3641      C3642   1.403       .  A
C3641      H3650   1.078       .  S
C3642      C3643   1.401       .  A
C3642      H3651   1.083       .  S
C3643      C3644   1.403       .  A
C3644      H3652   1.084       .  S
C3653      C3654   1.402       .  A
C3653      C3658   1.400       .  A
C3654      C3655   1.390       .  A
C3654      H3667   1.084       .  S
C3655      C3656   1.412       .  A
C3655      H3668   1.077       .  S
C3656      C3662   1.428       .  A
C3656      C3657   1.424       .  A
C3657      C3659   1.399       .  A
C3657      C3658   1.407       .  A
C3658      H3669   1.084       .  S
C3659      C3660   1.391       .  A
C3659      H3670   1.084       .  S
C3660      C3661   1.401       .  A
C3660      H3671   1.084       .  S
C3661      C3662   1.421       .  A
C3661      C3666   1.405       .  A
C3662      C3663   1.415       .  A
C3663      C3664   1.394       .  A
C3663      H3672   1.076       .  S
C3664      C3665   1.400       .  A
C3664      H3673   1.083       .  S
C3665      C3666   1.405       .  A
C3666      H3674   1.084       .  S
C3675      C3676   1.401       .  A
C3675      C3680   1.400       .  A
C3676      C3677   1.391       .  A
C3676      H3689   1.083       .  S
C3677      C3678   1.411       .  A
C3677      H3690   1.077       .  S
C3678      C3684   1.427       .  A
C3678      C3679   1.424       .  A
C3679      C3681   1.398       .  A
C3679      C3680   1.403       .  A
C3680      H3691   1.085       .  S
C3681      C3682   1.387       .  A
C3681      H3692   1.084       .  S
C3682      C3683   1.400       .  A
C3682      H3693   1.084       .  S
C3683      C3684   1.419       .  A
C3683      C3688   1.397       .  A
C3684      C3685   1.418       .  A
C3685      C3686   1.398       .  A
C3685      H3694   1.077       .  S
C3686      C3687   1.400       .  A
C3686      H3695   1.083       .  S
C3687      C3688   1.404       .  A
C3688      H3696   1.084       .  S
C3697      C3698   1.400       .  A
C3697      C3702   1.406       .  A
C3698      C3699   1.399       .  A
C3698      H3711   1.083       .  S
C3699      C3700   1.417       .  A
C3699      H3712   1.077       .  S
C3700      C3706   1.429       .  A
C3700      C3701   1.420       .  A
C3701      C3703   1.400       .  A
C3701      C3702   1.401       .  A
C3702      H3713   1.084       .  S
C3703      C3704   1.388       .  A
C3703      H3714   1.084       .  S
C3704      C3705   1.398       .  A
C3704      H3715   1.084       .  S
C3705      C3706   1.423       .  A
C3705      C3710   1.403       .  A
C3706      C3707   1.413       .  A
C3707      C3708   1.394       .  A
C3707      H3716   1.077       .  S
C3708      C3709   1.403       .  A
C3708      H3717   1.083       .  S
C3709      C3710   1.401       .  A
C3710      H3718   1.084       .  S
C3719      C3720   1.401       .  A
C3719      C3724   1.402       .  A
C3720      C3721   1.397       .  A
C3720      H3733   1.084       .  S
C3721      C3722   1.415       .  A
C3721      H3734   1.077       .  S
C3722      C3728   1.433       .  A
C3722      C3723   1.424       .  A
C3723      C3725   1.400       .  A
C3723      C3724   1.408       .  A
C3724      H3735   1.085       .  S
C3725      C3726   1.391       .  A
C3725      H3736   1.084       .  S
C3726      C3727   1.400       .  A
C3726      H3737   1.084       .  S
C3727      C3728   1.422       .  A
C3727      C3732   1.406       .  A
C3728      C3729   1.417       .  A
C3729      C3730   1.399       .  A
C3729      H3738   1.077       .  S
C3730      C3731   1.401       .  A
C3730      H3739   1.083       .  S
C3731      C3732   1.405       .  A
C3732      H3740   1.085       .  S
C3741      C3742   1.402       .  A
C3741      C3746   1.399       .  A
C3742      C3743   1.396       .  A
C3742      H3755   1.083       .  S
C3743      C3744   1.415       .  A
C3743      H3756   1.077       .  S
C3744      C3750   1.428       .  A
C3744      C3745   1.422       .  A
C3745      C3747   1.397       .  A
C3745      C3746   1.398       .  A
C3746      H3757   1.085       .  S
C3747      C3748   1.385       .  A
C3747      H3758   1.084       .  S
C3748      C3749   1.398       .  A
C3748      H3759   1.084       .  S
C3749      C3750   1.421       .  A
C3749      C3754   1.398       .  A
C3750      C3751   1.416       .  A
C3751      C3752   1.398       .  A
C3751      H3760   1.077       .  S
C3752      C3753   1.402       .  A
C3752      H3761   1.083       .  S
C3753      C3754   1.401       .  A
C3754      H3762   1.084       .  S
C3763      C3764   1.402       .  A
C3763      C3768   1.405       .  A
C3764      C3765   1.394       .  A
C3764      H3777   1.083       .  S
C3765      C3766   1.414       .  A
C3765      H3778   1.077       .  S
C3766      C3772   1.432       .  A
C3766      C3767   1.422       .  A
C3767      C3769   1.400       .  A
C3767      C3768   1.409       .  A
C3768      H3779   1.084       .  S
C3769      C3770   1.393       .  A
C3769      H3780   1.084       .  S
C3770      C3771   1.401       .  A
C3770      H3781   1.084       .  S
C3771      C3772   1.422       .  A
C3771      C3776   1.411       .  A
C3772      C3773   1.413       .  A
C3773      C3774   1.395       .  A
C3773      H3782   1.077       .  S
C3774      C3775   1.404       .  A
C3774      H3783   1.083       .  S
C3775      C3776   1.406       .  A
C3776      H3784   1.084       .  S
C3785      C3786   1.405       .  A
C3785      C3790   1.400       .  A
C3786      C3787   1.398       .  A
C3786      H3799   1.083       .  S
C3787      C3788   1.413       .  A
C3787      H3800   1.078       .  S
C3788      C3794   1.433       .  A
C3788      C3789   1.425       .  A
C3789      C3791   1.398       .  A
C3789      C3790   1.406       .  A
C3790      H3801   1.084       .  S
C3791      C3792   1.388       .  A
C3791      H3802   1.084       .  S
C3792      C3793   1.400       .  A
C3792      H3803   1.084       .  S
C3793      C3794   1.419       .  A
C3793      C3798   1.401       .  A
C3794      C3795   1.419       .  A
C3795      C3796   1.405       .  A
C3795      H3804   1.078       .  S
C3796      C3797   1.402       .  A
C3796      H3805   1.083       .  S
C3797      C3798   1.407       .  A
C3798      H3806   1.084       .  S
C3807      C3808   1.400       .  A
C3807      C3812   1.405       .  A
C3808      C3809   1.387       .  A
C3808      H3821   1.083       .  S
C3809      C3810   1.411       .  A
C3809      H3822   1.077       .  S
C3810      C3816   1.423       .  A
C3810      C3811   1.420       .  A
C3811      C3813   1.401       .  A
C3811      C3812   1.407       .  A
C3812      H3823   1.084       .  S
C3813      C3814   1.394       .  A
C3813      H3824   1.084       .  S
C3814      C3815   1.401       .  A
C3814      H3825   1.084       .  S
C3815      C3816   1.422       .  A
C3815      C3820   1.409       .  A
C3816      C3817   1.410       .  A
C3817      C3818   1.387       .  A
C3817      H3826   1.077       .  S
C3818      C3819   1.403       .  A
C3818      H3827   1.083       .  S
C3819      C3820   1.404       .  A
C3820      H3828   1.084       .  S
C3829      C3830   1.399       .  A
C3829      C3834   1.408       .  A
C3830      C3831   1.393       .  A
C3830      H3843   1.083       .  S
C3831      C3832   1.414       .  A
C3831      H3844   1.077       .  S
C3832      C3838   1.425       .  A
C3832      C3833   1.419       .  A
C3833      C3835   1.403       .  A
C3833      C3834   1.409       .  A
C3834      H3845   1.084       .  S
C3835      C3836   1.396       .  A
C3835      H3846   1.084       .  S
C3836      C3837   1.401       .  A
C3836      H3847   1.084       .  S
C3837      C3838   1.423       .  A
C3837      C3842   1.413       .  A
C3838      C3839   1.408       .  A
C3839      C3840   1.387       .  A
C3839      H3848   1.078       .  S
C3840      C3841   1.403       .  A
C3840      H3849   1.083       .  S
C3841      C3842   1.405       .  A
C3842      H3850   1.084       .  S
C3851      C3852   1.403       .  A
C3851      C3856   1.401       .  A
C3852      C3853   1.396       .  A
C3852      H3865   1.083       .  S
C3853      C3854   1.413       .  A
C3853      H3866   1.077       .  S
C3854      C3860   1.429       .  A
C3854      C3855   1.423       .  A
C3855      C3857   1.398       .  A
C3855      C3856   1.403       .  A
C3856      H3867   1.084       .  S
C3857      C3858   1.386       .  A
C3857      H3868   1.084       .  S
C3858      C3859   1.398       .  A
C3858      H3869   1.084       .  S
C3859      C3860   1.420       .  A
C3859      C3864   1.398       .  A
C3860      C3861   1.417       .  A
C3861      C3862   1.398       .  A
C3861      H3870   1.077       .  S
C3862      C3863   1.401       .  A
C3862      H3871   1.083       .  S
C3863      C3864   1.402       .  A
C3864      H3872   1.084       .  S
C3873      C3874   1.403       .  A
C3873      C3878   1.405       .  A
C3874      C3875   1.393       .  A
C3874      H3887   1.083       .  S
C3875      C3876   1.412       .  A
C3875      H3888   1.077       .  S
C3876      C3882   1.429       .  A
C3876      C3877   1.423       .  A
C3877      C3879   1.400       .  A
C3877      C3878   1.409       .  A
C3878      H3889   1.084       .  S
C3879      C3880   1.392       .  A
C3879      H3890   1.084       .  S
C3880      C3881   1.401       .  A
C3880      H3891   1.084       .  S
C3881      C3882   1.420       .  A
C3881      C3886   1.405       .  A
C3882      C3883   1.415       .  A
C3883      C3884   1.396       .  A
C3883      H3892   1.077       .  S
C3884      C3885   1.400       .  A
C3884      H3893   1.083       .  S
C3885      C3886   1.407       .  A
C3886      H3894   1.084       .  S
C3895      C3896   1.403       .  A
C3895      C3900   1.406       .  A
C3896      C3897   1.394       .  A
C3896      H3909   1.083       .  S
C3897      C3898   1.413       .  A
C3897      H3910   1.077       .  S
C3898      C3904   1.432       .  A
C3898      C3899   1.423       .  A
C3899      C3901   1.401       .  A
C3899      C3900   1.411       .  A
C3900      H3911   1.084       .  S
C3901      C3902   1.393       .  A
C3901      H3912   1.084   1_455  S
C3902      C3903   1.401       .  A
C3902      H3913   1.084   1_455  S
C3903      C3904   1.422       .  A
C3903      C3908   1.411       .  A
C3904      C3905   1.414       .  A
C3905      C3906   1.396       .  A
C3905      H3914   1.077       .  S
C3906      C3907   1.403       .  A
C3906      H3915   1.083       .  S
C3907      C3908   1.407       .  A
C3908      H3916   1.084   1_455  S
C3917      C3918   1.404       .  A
C3917      C3922   1.405       .  A
C3918      C3919   1.393       .  A
C3918      H3931   1.083       .  S
C3919      C3920   1.411       .  A
C3919      H3932   1.077       .  S
C3920      C3926   1.429       .  A
C3920      C3921   1.423       .  A
C3921      C3923   1.400       .  A
C3921      C3922   1.410       .  A
C3922      H3933   1.084       .  S
C3923      C3924   1.392       .  A
C3923      H3934   1.084       .  S
C3924      C3925   1.401       .  A
C3924      H3935   1.084       .  S
C3925      C3926   1.420       .  A
C3925      C3930   1.406       .  A
C3926      C3927   1.415       .  A
C3927      C3928   1.396       .  A
C3927      H3936   1.078       .  S
C3928      C3929   1.401       .  A
C3928      H3937   1.083       .  S
C3929      C3930   1.406       .  A
C3930      H3938   1.084       .  S
C3939      C3940   1.401       .  A
C3939      C3944   1.404       .  A
C3940      C3941   1.401       .  A
C3940      H3953   1.083       .  S
C3941      C3942   1.417       .  A
C3941      H3954   1.077       .  S
C3942      C3948   1.430       .  A
C3942      C3943   1.420       .  A
C3943      C3945   1.399       .  A
C3943      C3944   1.398       .  A
C3944      H3955   1.084       .  S
C3945      C3946   1.385       .  A
C3945      H3956   1.084       .  S
C3946      C3947   1.397       .  A
C3946      H3957   1.084       .  S
C3947      C3948   1.423       .  A
C3947      C3952   1.400       .  A
C3948      C3949   1.414       .  A
C3949      C3950   1.397       .  A
C3949      H3958   1.078       .  S
C3950      C3951   1.405       .  A
C3950      H3959   1.083       .  S
C3951      C3952   1.399       .  A
C3952      H3960   1.084       .  S
C3961      C3962   1.403       .  A
C3961      C3966   1.401       .  A
C3962      C3963   1.395       .  A
C3962      H3975   1.083       .  S
C3963      C3964   1.413       .  A
C3963      H3976   1.077       .  S
C3964      C3970   1.429       .  A
C3964      C3965   1.423       .  A
C3965      C3967   1.398       .  A
C3965      C3966   1.403       .  A
C3966      H3977   1.084       .  S
C3967      C3968   1.387       .  A
C3967      H3978   1.084       .  S
C3968      C3969   1.399       .  A
C3968      H3979   1.084       .  S
C3969      C3970   1.420       .  A
C3969      C3974   1.399       .  A
C3970      C3971   1.417       .  A
C3971      C3972   1.398   1_655  A
C3971      H3980   1.077       .  S
C3972      C3973   1.400       .  A
C3972      H3981   1.083       .  S
C3973      C3974   1.405   1_455  A
C3974      H3982   1.084   1_655  S
C3983      C3984   1.404       .  A
C3983      C3988   1.404       .  A
C3984      C3985   1.400       .  A
C3984      H3997   1.083   1_565  S
C3985      C3986   1.415       .  A
C3985      H3998   1.077       .  S
C3986      C3992   1.433       .  A
C3986      C3987   1.422       .  A
C3987      C3989   1.399       .  A
C3987      C3988   1.405       .  A
C3988      H3999   1.084       .  S
C3989      C3990   1.389       .  A
C3989      H4000   1.084       .  S
C3990      C3991   1.399       .  A
C3990      H4001   1.084       .  S
C3991      C3992   1.422       .  A
C3991      C3996   1.405       .  A
C3992      C3993   1.416       .  A
C3993      C3994   1.400       .  A
C3993      H4002   1.077       .  S
C3994      C3995   1.404       .  A
C3994      H4003   1.083       .  S
C3995      C3996   1.404       .  A
C3996      H4004   1.084       .  S
C4005      C4006   1.403       .  A
C4005      C4010   1.403       .  A
C4006      C4007   1.394       .  A
C4006      H4019   1.083       .  S
C4007      C4008   1.412       .  A
C4007      H4020   1.077       .  S
C4008      C4014   1.430       .  A
C4008      C4009   1.423       .  A
C4009      C4011   1.399       .  A
C4009      C4010   1.405       .  A
C4010      H4021   1.084       .  S
C4011      C4012   1.388       .  A
C4011      H4022   1.084       .  S
C4012      C4013   1.400       .  A
C4012      H4023   1.084       .  S
C4013      C4014   1.420       .  A
C4013      C4018   1.400       .  A
C4014      C4015   1.417       .  A
C4015      C4016   1.399       .  A
C4015      H4024   1.077       .  S
C4016      C4017   1.401       .  A
C4016      H4025   1.083       .  S
C4017      C4018   1.405       .  A
C4018      H4026   1.084       .  S
C4027      C4028   1.402       .  A
C4027      C4032   1.400       .  A
C4028      C4029   1.388       .  A
C4028      H4041   1.084       .  S
C4029      C4030   1.410       .  A
C4029      H4042   1.077       .  S
C4030      C4036   1.425       .  A
C4030      C4031   1.424       .  A
C4031      C4033   1.399       .  A
C4031      C4032   1.407       .  A
C4032      H4043   1.084       .  S
C4033      C4034   1.391       .  A
C4033      H4044   1.084       .  S
C4034      C4035   1.401       .  A
C4034      H4045   1.084       .  S
C4035      C4036   1.420       .  A
C4035      C4040   1.403       .  A
C4036      C4037   1.416       .  A
C4037      C4038   1.392       .  A
C4037      H4046   1.076       .  S
C4038      C4039   1.397       .  A
C4038      H4047   1.084       .  S
C4039      C4040   1.403       .  A
C4040      H4048   1.085   1_655  S
C4049      C4050   1.404       .  A
C4049      C4054   1.407       .  A
C4050      C4051   1.396       .  A
C4050      H4063   1.083       .  S
C4051      C4052   1.413       .  A
C4051      H4064   1.077       .  S
C4052      C4058   1.432       .  A
C4052      C4053   1.422       .  A
C4053      C4055   1.401       .  A
C4053      C4054   1.411       .  A
C4054      H4065   1.084       .  S
C4055      C4056   1.393       .  A
C4055      H4066   1.084       .  S
C4056      C4057   1.401       .  A
C4056      H4067   1.084       .  S
C4057      C4058   1.421       .  A
C4057      C4062   1.409       .  A
C4058      C4059   1.415       .  A
C4059      C4060   1.397       .  A
C4059      H4068   1.077       .  S
C4060      C4061   1.402       .  A
C4060      H4069   1.083       .  S
C4061      C4062   1.407       .  A
C4062      H4070   1.084       .  S
C4071      C4072   1.402       .  A
C4071      C4076   1.403       .  A
C4072      C4073   1.400       .  A
C4072      H4085   1.083       .  S
C4073      C4074   1.417       .  A
C4073      H4086   1.077       .  S
C4074      C4080   1.430       .  A
C4074      C4075   1.420       .  A
C4075      C4077   1.399       .  A
C4075      C4076   1.399       .  A
C4076      H4087   1.084       .  S
C4077      C4078   1.386       .  A
C4077      H4088   1.084       .  S
C4078      C4079   1.397       .  A
C4078      H4089   1.084       .  S
C4079      C4080   1.423       .  A
C4079      C4084   1.402       .  A
C4080      C4081   1.413       .  A
C4081      C4082   1.396       .  A
C4081      H4090   1.077       .  S
C4082      C4083   1.404       .  A
C4082      H4091   1.083   1_545  S
C4083      C4084   1.400       .  A
C4084      H4092   1.084       .  S
C4093      C4094   1.400       .  A
C4093      C4098   1.405       .  A
C4094      C4095   1.400       .  A
C4094      H4107   1.083       .  S
C4095      C4096   1.418       .  A
C4095      H4108   1.077       .  S
C4096      C4102   1.429       .  A
C4096      C4097   1.419       .  A
C4097      C4099   1.400       .  A
C4097      C4098   1.399       .  A
C4098      H4109   1.084       .  S
C4099      C4100   1.387       .  A
C4099      H4110   1.084       .  S
C4100      C4101   1.398       .  A
C4100      H4111   1.084       .  S
C4101      C4102   1.425       .  A
C4101      C4106   1.404       .  A
C4102      C4103   1.412       .  A
C4103      C4104   1.394       .  A
C4103      H4112   1.077       .  S
C4104      C4105   1.403       .  A
C4104      H4113   1.083       .  S
C4105      C4106   1.399       .  A
C4106      H4114   1.085       .  S
C4115      C4116   1.401       .  A
C4115      C4120   1.404       .  A
C4116      C4117   1.400       .  A
C4116      H4129   1.083       .  S
C4117      C4118   1.417       .  A
C4117      H4130   1.077       .  S
C4118      C4124   1.430       .  A
C4118      C4119   1.421       .  A
C4119      C4121   1.399       .  A
C4119      C4120   1.400       .  A
C4120      H4131   1.085       .  S
C4121      C4122   1.386       .  A
C4121      H4132   1.084       .  S
C4122      C4123   1.397       .  A
C4122      H4133   1.084       .  S
C4123      C4124   1.423       .  A
C4123      C4128   1.400       .  A
C4124      C4125   1.415       .  A
C4125      C4126   1.397       .  A
C4125      H4134   1.077       .  S
C4126      C4127   1.403       .  A
C4126      H4135   1.084       .  S
C4127      C4128   1.398       .  A
C4128      H4136   1.085       .  S
C4137      C4138   1.400       .  A
C4137      C4142   1.402       .  A
C4138      C4139   1.397   1_565  A
C4138      H4151   1.083       .  S
C4139      C4140   1.416       .  A
C4139      H4152   1.077       .  S
C4140      C4146   1.427       .  A
C4140      C4141   1.421       .  A
C4141      C4143   1.399       .  A
C4141      C4142   1.398   1_545  A
C4142      H4153   1.085       .  S
C4143      C4144   1.386       .  A
C4143      H4154   1.084       .  S
C4144      C4145   1.398       .  A
C4144      H4155   1.084       .  S
C4145      C4146   1.423       .  A
C4145      C4150   1.400       .  A
C4146      C4147   1.414       .  A
C4147      C4148   1.394       .  A
C4147      H4156   1.077       .  S
C4148      C4149   1.401       .  A
C4148      H4157   1.084       .  S
C4149      C4150   1.399       .  A
C4150      H4158   1.085       .  S
C4159      C4160   1.405       .  A
C4159      C4164   1.404       .  A
C4160      C4161   1.402       .  A
C4160      H4173   1.083       .  S
C4161      C4162   1.416       .  A
C4161      H4174   1.078       .  S
C4162      C4168   1.435       .  A
C4162      C4163   1.422       .  A
C4163      C4165   1.399       .  A
C4163      C4164   1.405       .  A
C4164      H4175   1.084       .  S
C4165      C4166   1.388       .  A
C4165      H4176   1.084       .  S
C4166      C4167   1.399       .  A
C4166      H4177   1.084       .  S
C4167      C4168   1.422       .  A
C4167      C4172   1.406       .  A
C4168      C4169   1.416       .  A
C4169      C4170   1.402       .  A
C4169      H4178   1.078       .  S
C4170      C4171   1.404       .  A
C4170      H4179   1.083       .  S
C4171      C4172   1.404       .  A
C4172      H4180   1.084       .  S
C4181      C4182   1.404       .  A
C4181      C4186   1.404       .  A
C4182      C4183   1.395       .  A
C4182      H4195   1.083       .  S
C4183      C4184   1.413       .  A
C4183      H4196   1.077       .  S
C4184      C4190   1.431       .  A
C4184      C4185   1.423       .  A
C4185      C4187   1.400       .  A
C4185      C4186   1.409       .  A
C4186      H4197   1.084       .  S
C4187      C4188   1.392       .  A
C4187      H4198   1.084       .  S
C4188      C4189   1.401       .  A
C4188      H4199   1.084       .  S
C4189      C4190   1.421       .  A
C4189      C4194   1.407       .  A
C4190      C4191   1.415       .  A
C4191      C4192   1.397       .  A
C4191      H4200   1.077       .  S
C4192      C4193   1.402       .  A
C4192      H4201   1.083       .  S
C4193      C4194   1.407       .  A
C4194      H4202   1.084       .  S
C4203      C4204   1.403       .  A
C4203      C4208   1.399   1_565  A
C4204      C4205   1.396   1_565  A
C4204      H4217   1.083       .  S
C4205      C4206   1.413       .  A
C4205      H4218   1.077       .  S
C4206      C4212   1.431       .  A
C4206      C4207   1.424       .  A
C4207      C4209   1.397       .  A
C4207      C4208   1.403       .  A
C4208      H4219   1.085       .  S
C4209      C4210   1.387       .  A
C4209      H4220   1.084       .  S
C4210      C4211   1.399       .  A
C4210      H4221   1.084       .  S
C4211      C4212   1.420       .  A
C4211      C4216   1.400       .  A
C4212      C4213   1.418       .  A
C4213      C4214   1.402   1_655  A
C4213      H4222   1.077       .  S
C4214      C4215   1.401       .  A
C4214      H4223   1.083       .  S
C4215      C4216   1.405   1_455  A
C4216      H4224   1.084       .  S
C4225      C4226   1.400       .  A
C4225      C4230   1.405       .  A
C4226      C4227   1.392       .  A
C4226      H4239   1.083       .  S
C4227      C4228   1.415       .  A
C4227      H4240   1.076       .  S
C4228      C4234   1.425       .  A
C4228      C4229   1.420       .  A
C4229      C4231   1.401       .  A
C4229      C4230   1.404       .  A
C4230      H4241   1.084       .  S
C4231      C4232   1.391       .  A
C4231      H4242   1.084       .  S
C4232      C4233   1.399       .  A
C4232      H4243   1.084       .  S
C4233      C4234   1.424       .  A
C4233      C4238   1.407       .  A
C4234      C4235   1.410       .  A
C4235      C4236   1.387       .  A
C4235      H4244   1.077       .  S
C4236      C4237   1.403       .  A
C4236      H4245   1.084       .  S
C4237      C4238   1.400       .  A
C4238      H4246   1.084       .  S
C4247      C4248   1.404       .  A
C4247      C4252   1.400       .  A
C4248      C4249   1.398       .  A
C4248      H4261   1.083       .  S
C4249      C4250   1.414       .  A
C4249      H4262   1.078       .  S
C4250      C4256   1.431       .  A
C4250      C4251   1.424       .  A
C4251      C4253   1.397       .  A
C4251      C4252   1.402       .  A
C4252      H4263   1.085       .  S
C4253      C4254   1.386       .  A
C4253      H4264   1.084       .  S
C4254      C4255   1.399       .  A
C4254      H4265   1.084       .  S
C4255      C4256   1.420       .  A
C4255      C4260   1.398       .  A
C4256      C4257   1.418       .  A
C4257      C4258   1.403   1_545  A
C4257      H4266   1.077       .  S
C4258      C4259   1.401       .  A
C4258      H4267   1.083       .  S
C4259      C4260   1.405   1_565  A
C4260      H4268   1.084   1_545  S
C4269      C4270   1.402       .  A
C4269      C4274   1.398       .  A
C4270      C4271   1.395       .  A
C4270      H4283   1.083       .  S
C4271      C4272   1.413       .  A
C4271      H4284   1.077       .  S
C4272      C4278   1.428       .  A
C4272      C4273   1.424       .  A
C4273      C4275   1.396       .  A
C4273      C4274   1.400       .  A
C4274      H4285   1.085       .  S
C4275      C4276   1.384       .  A
C4275      H4286   1.084       .  S
C4276      C4277   1.399       .  A
C4276      H4287   1.084       .  S
C4277      C4278   1.419       .  A
C4277      C4282   1.396       .  A
C4278      C4279   1.418       .  A
C4279      C4280   1.401       .  A
C4279      H4288   1.078       .  S
C4280      C4281   1.402       .  A
C4280      H4289   1.083       .  S
C4281      C4282   1.403       .  A
C4282      H4290   1.084       .  S
C4291      C4292   1.404       .  A
C4291      C4296   1.405       .  A
C4292      C4293   1.402       .  A
C4292      H4305   1.083       .  S
C4293      C4294   1.416       .  A
C4293      H4306   1.078       .  S
C4294      C4300   1.436   1_565  A
C4294      C4295   1.422       .  A
C4295      C4297   1.399       .  A
C4295      C4296   1.406       .  A
C4296      H4307   1.084       .  S
C4297      C4298   1.390   1_565  A
C4297      H4308   1.084       .  S
C4298      C4299   1.399       .  A
C4298      H4309   1.084       .  S
C4299      C4300   1.423       .  A
C4299      C4304   1.409       .  A
C4300      C4301   1.415       .  A
C4301      C4302   1.401       .  A
C4301      H4310   1.078       .  S
C4302      C4303   1.405       .  A
C4302      H4311   1.083       .  S
C4303      C4304   1.404       .  A
C4304      H4312   1.084       .  S
C4313      C4314   1.404       .  A
C4313      C4318   1.405       .  A
C4314      C4315   1.393       .  A
C4314      H4327   1.083       .  S
C4315      C4316   1.412       .  A
C4315      H4328   1.077       .  S
C4316      C4322   1.433       .  A
C4316      C4317   1.424       .  A
C4317      C4319   1.400       .  A
C4317      C4318   1.412       .  A
C4318      H4329   1.084       .  S
C4319      C4320   1.393       .  A
C4319      H4330   1.084       .  S
C4320      C4321   1.402       .  A
C4320      H4331   1.084       .  S
C4321      C4322   1.421       .  A
C4321      C4326   1.409       .  A
C4322      C4323   1.416       .  A
C4323      C4324   1.397       .  A
C4323      H4332   1.077       .  S
C4324      C4325   1.402       .  A
C4324      H4333   1.083       .  S
C4325      C4326   1.408       .  A
C4326      H4334   1.084       .  S
C4335      C4336   1.404       .  A
C4335      C4340   1.405       .  A
C4336      C4337   1.393       .  A
C4336      H4349   1.083       .  S
C4337      C4338   1.413       .  A
C4337      H4350   1.077       .  S
C4338      C4344   1.431       .  A
C4338      C4339   1.422       .  A
C4339      C4341   1.401       .  A
C4339      C4340   1.411       .  A
C4340      H4351   1.084       .  S
C4341      C4342   1.393       .  A
C4341      H4352   1.084       .  S
C4342      C4343   1.401       .  A
C4342      H4353   1.084       .  S
C4343      C4344   1.422       .  A
C4343      C4348   1.410       .  A
C4344      C4345   1.413       .  A
C4345      C4346   1.393       .  A
C4345      H4354   1.077       .  S
C4346      C4347   1.403       .  A
C4346      H4355   1.083       .  S
C4347      C4348   1.406       .  A
C4348      H4356   1.084       .  S
C4357      C4358   1.402       .  A
C4357      C4362   1.398       .  A
C4358      C4359   1.396       .  A
C4358      H4371   1.083       .  S
C4359      C4360   1.414       .  A
C4359      H4372   1.077       .  S
C4360      C4366   1.430       .  A
C4360      C4361   1.424       .  A
C4361      C4363   1.397       .  A
C4361      C4362   1.400       .  A
C4362      H4373   1.085       .  S
C4363      C4364   1.385       .  A
C4363      H4374   1.084       .  S
C4364      C4365   1.398       .  A
C4364      H4375   1.084       .  S
C4365      C4366   1.420       .  A
C4365      C4370   1.396       .  A
C4366      C4367   1.418       .  A
C4367      C4368   1.402       .  A
C4367      H4376   1.078       .  S
C4368      C4369   1.401       .  A
C4368      H4377   1.083       .  S
C4369      C4370   1.403       .  A
C4370      H4378   1.084       .  S
C4379      C4380   1.402       .  A
C4379      C4384   1.401       .  A
C4380      C4381   1.396       .  A
C4380      H4393   1.083   1_565  S
C4381      C4382   1.414       .  A
C4381      H4394   1.077       .  S
C4382      C4388   1.428       .  A
C4382      C4383   1.423       .  A
C4383      C4385   1.398       .  A
C4383      C4384   1.400       .  A
C4384      H4395   1.085       .  S
C4385      C4386   1.385       .  A
C4385      H4396   1.084       .  S
C4386      C4387   1.398       .  A
C4386      H4397   1.084       .  S
C4387      C4388   1.420       .  A
C4387      C4392   1.396       .  A
C4388      C4389   1.417       .  A
C4389      C4390   1.399   1_455  A
C4389      H4398   1.077       .  S
C4390      C4391   1.402       .  A
C4390      H4399   1.083       .  S
C4391      C4392   1.402   1_655  A
C4392      H4400   1.084   1_455  S
C4401      C4402   1.404       .  A
C4401      C4406   1.402       .  A
C4402      C4403   1.399       .  A
C4402      H4415   1.083       .  S
C4403      C4404   1.415       .  A
C4403      H4416   1.077       .  S
C4404      C4410   1.432       .  A
C4404      C4405   1.422       .  A
C4405      C4407   1.398       .  A
C4405      C4406   1.402       .  A
C4406      H4417   1.084       .  S
C4407      C4408   1.387       .  A
C4407      H4418   1.084       .  S
C4408      C4409   1.399       .  A
C4408      H4419   1.084       .  S
C4409      C4410   1.422       .  A
C4409      C4414   1.403       .  A
C4410      C4411   1.415       .  A
C4411      C4412   1.399       .  A
C4411      H4420   1.077       .  S
C4412      C4413   1.403       .  A
C4412      H4421   1.083       .  S
C4413      C4414   1.403       .  A
C4414      H4422   1.084       .  S
C4423      C4424   1.399       .  A
C4423      C4428   1.407   1_545  A
C4424      C4425   1.403   1_545  A
C4424      H4437   1.083       .  S
C4425      C4426   1.420       .  A
C4425      H4438   1.077       .  S
C4426      C4432   1.429       .  A
C4426      C4427   1.418       .  A
C4427      C4429   1.400       .  A
C4427      C4428   1.395       .  A
C4428      H4439   1.084       .  S
C4429      C4430   1.385       .  A
C4429      H4440   1.084       .  S
C4430      C4431   1.396       .  A
C4430      H4441   1.084       .  S
C4431      C4432   1.425       .  A
C4431      C4436   1.402       .  A
C4432      C4433   1.411       .  A
C4433      C4434   1.395       .  A
C4433      H4442   1.077       .  S
C4434      C4435   1.405       .  A
C4434      H4443   1.083   1_455  S
C4435      C4436   1.398       .  A
C4436      H4444   1.085       .  S
C4445      C4446   1.399       .  A
C4445      C4450   1.402       .  A
C4446      C4447   1.388       .  A
C4446      H4459   1.084       .  S
C4447      C4448   1.412       .  A
C4447      H4460   1.076       .  S
C4448      C4454   1.426       .  A
C4448      C4449   1.423       .  A
C4449      C4451   1.400       .  A
C4449      C4450   1.408       .  A
C4450      H4461   1.085       .  S
C4451      C4452   1.393       .  A
C4451      H4462   1.084       .  S
C4452      C4453   1.402       .  A
C4452      H4463   1.084       .  S
C4453      C4454   1.421       .  A
C4453      C4458   1.407       .  A
C4454      C4455   1.414       .  A
C4455      C4456   1.390       .  A
C4455      H4464   1.076       .  S
C4456      C4457   1.398       .  A
C4456      H4465   1.083       .  S
C4457      C4458   1.406       .  A
C4458      H4466   1.084       .  S
C4467      C4468   1.404       .  A
C4467      C4472   1.405       .  A
C4468      C4469   1.400       .  A
C4468      H4481   1.083       .  S
C4469      C4470   1.416       .  A
C4469      H4482   1.078       .  S
C4470      C4476   1.435       .  A
C4470      C4471   1.422       .  A
C4471      C4473   1.400       .  A
C4471      C4472   1.408       .  A
C4472      H4483   1.084       .  S
C4473      C4474   1.391       .  A
C4473      H4484   1.084       .  S
C4474      C4475   1.400       .  A
C4474      H4485   1.084       .  S
C4475      C4476   1.423       .  A
C4475      C4480   1.410       .  A
C4476      C4477   1.414       .  A
C4477      C4478   1.399       .  A
C4477      H4486   1.078       .  S
C4478      C4479   1.405       .  A
C4478      H4487   1.083       .  S
C4479      C4480   1.404       .  A
C4480      H4488   1.084       .  S
C4489      C4490   1.405       .  A
C4489      C4494   1.405       .  A
C4490      C4491   1.402       .  A
C4490      H4503   1.083       .  S
C4491      C4492   1.416       .  A
C4491      H4504   1.078       .  S
C4492      C4498   1.438       .  A
C4492      C4493   1.423       .  A
C4493      C4495   1.400       .  A
C4493      C4494   1.409       .  A
C4494      H4505   1.084       .  S
C4495      C4496   1.391       .  A
C4495      H4506   1.084       .  S
C4496      C4497   1.400       .  A
C4496      H4507   1.084       .  S
C4497      C4498   1.422       .  A
C4497      C4502   1.409       .  A
C4498      C4499   1.417       .  A
C4499      C4500   1.403       .  A
C4499      H4508   1.078   1_655  S
C4500      C4501   1.404       .  A
C4500      H4509   1.083   1_655  S
C4501      C4502   1.407       .  A
C4502      H4510   1.084       .  S
C4511      C4512   1.400       .  A
C4511      C4516   1.406       .  A
C4512      C4513   1.387       .  A
C4512      H4525   1.083       .  S
C4513      C4514   1.412       .  A
C4513      H4526   1.076       .  S
C4514      C4520   1.424       .  A
C4514      C4515   1.421       .  A
C4515      C4517   1.401       .  A
C4515      C4516   1.408       .  A
C4516      H4527   1.084       .  S
C4517      C4518   1.394       .  A
C4517      H4528   1.084       .  S
C4518      C4519   1.401       .  A
C4518      H4529   1.084       .  S
C4519      C4520   1.422       .  A
C4519      C4524   1.410   1_565  A
C4520      C4521   1.410       .  A
C4521      C4522   1.386       .  A
C4521      H4530   1.076       .  S
C4522      C4523   1.402   1_565  A
C4522      H4531   1.083       .  S
C4523      C4524   1.406       .  A
C4524      H4532   1.084       .  S
C4533      C4534   1.405       .  A
C4533      C4538   1.400       .  A
C4534      C4535   1.400       .  A
C4534      H4547   1.083       .  S
C4535      C4536   1.414       .  A
C4535      H4548   1.078       .  S
C4536      C4542   1.434       .  A
C4536      C4537   1.424       .  A
C4537      C4539   1.398       .  A
C4537      C4538   1.406       .  A
C4538      H4549   1.084       .  S
C4539      C4540   1.387       .  A
C4539      H4550   1.084       .  S
C4540      C4541   1.399       .  A
C4540      H4551   1.084       .  S
C4541      C4542   1.420       .  A
C4541      C4546   1.401       .  A
C4542      C4543   1.418       .  A
C4543      C4544   1.403       .  A
C4543      H4552   1.078       .  S
C4544      C4545   1.402       .  A
C4544      H4553   1.083       .  S
C4545      C4546   1.405       .  A
C4546      H4554   1.085       .  S
C4555      C4556   1.401       .  A
C4555      C4560   1.403       .  A
C4556      C4557   1.396       .  A
C4556      H4569   1.083   1_455  S
C4557      C4558   1.414       .  A
C4557      H4570   1.077       .  S
C4558      C4564   1.430       .  A
C4558      C4559   1.422       .  A
C4559      C4561   1.399       .  A
C4559      C4560   1.405       .  A
C4560      H4571   1.084       .  S
C4561      C4562   1.389       .  A
C4561      H4572   1.084       .  S
C4562      C4563   1.400       .  A
C4562      H4573   1.084       .  S
C4563      C4564   1.421       .  A
C4563      C4568   1.404       .  A
C4564      C4565   1.415       .  A
C4565      C4566   1.396       .  A
C4565      H4574   1.077       .  S
C4566      C4567   1.400       .  A
C4566      H4575   1.083       .  S
C4567      C4568   1.406       .  A
C4568      H4576   1.084       .  S
C4577      C4578   1.404       .  A
C4577      C4582   1.403       .  A
C4578      C4579   1.391       .  A
C4578      H4591   1.083       .  S
C4579      C4580   1.410       .  A
C4579      H4592   1.077       .  S
C4580      C4586   1.430       .  A
C4580      C4581   1.424       .  A
C4581      C4583   1.399       .  A
C4581      C4582   1.410       .  A
C4582      H4593   1.084       .  S
C4583      C4584   1.391       .  A
C4583      H4594   1.084       .  S
C4584      C4585   1.401       .  A
C4584      H4595   1.084       .  S
C4585      C4586   1.420       .  A
C4585      C4590   1.405       .  A
C4586      C4587   1.417       .  A
C4587      C4588   1.396       .  A
C4587      H4596   1.077       .  S
C4588      C4589   1.400       .  A
C4588      H4597   1.083       .  S
C4589      C4590   1.404       .  A
C4590      H4598   1.084       .  S
C4599      C4600   1.403       .  A
C4599      C4604   1.404       .  A
C4600      C4601   1.392       .  A
C4600      H4613   1.083       .  S
C4601      C4602   1.413       .  A
C4601      H4614   1.077       .  S
C4602      C4608   1.430   1_655  A
C4602      C4603   1.423       .  A
C4603      C4605   1.400       .  A
C4603      C4604   1.409       .  A
C4604      H4615   1.084       .  S
C4605      C4606   1.392   1_655  A
C4605      H4616   1.084       .  S
C4606      C4607   1.401       .  A
C4606      H4617   1.084       .  S
C4607      C4608   1.422       .  A
C4607      C4612   1.409       .  A
C4608      C4609   1.413       .  A
C4609      C4610   1.393       .  A
C4609      H4618   1.077       .  S
C4610      C4611   1.403       .  A
C4610      H4619   1.083       .  S
C4611      C4612   1.405       .  A
C4612      H4620   1.084       .  S
C4621      C4622   1.401       .  A
C4621      C4626   1.400       .  A
C4622      C4623   1.389       .  A
C4622      H4635   1.084       .  S
C4623      C4624   1.411       .  A
C4623      H4636   1.077       .  S
C4624      C4630   1.425       .  A
C4624      C4625   1.424       .  A
C4625      C4627   1.399       .  A
C4625      C4626   1.405       .  A
C4626      H4637   1.085       .  S
C4627      C4628   1.390       .  A
C4627      H4638   1.084       .  S
C4628      C4629   1.401       .  A
C4628      H4639   1.084       .  S
C4629      C4630   1.420       .  A
C4629      C4634   1.402       .  A
C4630      C4631   1.415       .  A
C4631      C4632   1.393       .  A
C4631      H4640   1.077       .  S
C4632      C4633   1.399       .  A
C4632      H4641   1.083       .  S
C4633      C4634   1.405       .  A
C4634      H4642   1.084       .  S
C4643      C4644   1.400       .  A
C4643      C4648   1.406   1_655  A
C4644      C4645   1.401   1_655  A
C4644      H4657   1.083       .  S
C4645      C4646   1.418       .  A
C4645      H4658   1.077       .  S
C4646      C4652   1.430       .  A
C4646      C4647   1.419       .  A
C4647      C4649   1.400       .  A
C4647      C4648   1.399       .  A
C4648      H4659   1.084   1_455  S
C4649      C4650   1.387       .  A
C4649      H4660   1.084       .  S
C4650      C4651   1.398       .  A
C4650      H4661   1.084       .  S
C4651      C4652   1.424       .  A
C4651      C4656   1.405       .  A
C4652      C4653   1.412       .  A
C4653      C4654   1.396       .  A
C4653      H4662   1.077       .  S
C4654      C4655   1.405       .  A
C4654      H4663   1.083       .  S
C4655      C4656   1.401       .  A
C4656      H4664   1.084       .  S
C4665      C4666   1.404       .  A
C4665      C4670   1.404       .  A
C4666      C4667   1.386       .  A
C4666      H4679   1.083       .  S
C4667      C4668   1.408       .  A
C4667      H4680   1.077       .  S
C4668      C4674   1.424       .  A
C4668      C4669   1.423       .  A
C4669      C4671   1.400       .  A
C4669      C4670   1.411       .  A
C4670      H4681   1.084       .  S
C4671      C4672   1.393       .  A
C4671      H4682   1.084       .  S
C4672      C4673   1.401       .  A
C4672      H4683   1.084       .  S
C4673      C4674   1.419       .  A
C4673      C4678   1.404       .  A
C4674      C4675   1.414       .  A
C4675      C4676   1.390       .  A
C4675      H4684   1.077       .  S
C4676      C4677   1.399       .  A
C4676      H4685   1.083       .  S
C4677      C4678   1.406       .  A
C4678      H4686   1.084       .  S
C4687      C4688   1.405       .  A
C4687      C4692   1.398       .  A
C4688      C4689   1.396       .  A
C4688      H4701   1.083   1_565  S
C4689      C4690   1.413       .  A
C4689      H4702   1.078       .  S
C4690      C4696   1.430       .  A
C4690      C4691   1.424       .  A
C4691      C4693   1.397       .  A
C4691      C4692   1.402       .  A
C4692      H4703   1.084       .  S
C4693      C4694   1.386       .  A
C4693      H4704   1.084       .  S
C4694      C4695   1.399       .  A
C4694      H4705   1.084       .  S
C4695      C4696   1.420       .  A
C4695      C4700   1.398       .  A
C4696      C4697   1.418       .  A
C4697      C4698   1.401       .  A
C4697      H4706   1.077       .  S
C4698      C4699   1.400       .  A
C4698      H4707   1.083       .  S
C4699      C4700   1.404       .  A
C4700      H4708   1.084       .  S
C4709      C4710   1.403       .  A
C4709      C4714   1.405       .  A
C4710      C4711   1.400       .  A
C4710      H4723   1.083       .  S
C4711      C4712   1.416       .  A
C4711      H4724   1.077       .  S
C4712      C4718   1.434       .  A
C4712      C4713   1.421       .  A
C4713      C4715   1.400       .  A
C4713      C4714   1.407       .  A
C4714      H4725   1.084       .  S
C4715      C4716   1.391       .  A
C4715      H4726   1.084       .  S
C4716      C4717   1.399       .  A
C4716      H4727   1.084       .  S
C4717      C4718   1.423       .  A
C4717      C4722   1.408       .  A
C4718      C4719   1.414       .  A
C4719      C4720   1.398       .  A
C4719      H4728   1.077       .  S
C4720      C4721   1.404       .  A
C4720      H4729   1.083       .  S
C4721      C4722   1.404       .  A
C4722      H4730   1.084       .  S
C4731      C4732   1.403       .  A
C4731      C4736   1.406       .  A
C4732      C4733   1.392       .  A
C4732      H4745   1.083       .  S
C4733      C4734   1.412       .  A
C4733      H4746   1.076       .  S
C4734      C4740   1.432       .  A
C4734      C4735   1.423       .  A
C4735      C4737   1.401   1_545  A
C4735      C4736   1.413       .  A
C4736      H4747   1.084   1_545  S
C4737      C4738   1.395   1_565  A
C4737      H4748   1.084       .  S
C4738      C4739   1.402       .  A
C4738      H4749   1.084   1_545  S
C4739      C4740   1.421       .  A
C4739      C4744   1.413       .  A
C4740      C4741   1.414       .  A
C4741      C4742   1.395       .  A
C4741      H4750   1.077       .  S
C4742      C4743   1.403       .  A
C4742      H4751   1.083       .  S
C4743      C4744   1.408       .  A
C4744      H4752   1.084       .  S
