geometry optimzed in LAMMPS
_audit_creation_date              2020-12-01 
_audit_creation_method            'lammps2cif' 
_symmetry_space_group_name_H-M    'P1' 
_symmetry_Int_Tables_number       1 
_symmetry_cell_setting            triclinic 
loop_ 
_symmetry_equiv_pos_as_xyz 
  x,y,z 
_cell_length_a                    46.93329599 
_cell_length_b                    46.731389179192306 
_cell_length_c                    42.324528201077335 
_cell_angle_alpha                 89.61032470083717 
_cell_angle_beta                  90.56675525029843 
_cell_angle_gamma                 89.66699828407266 
loop_ 
_atom_site_label 
_atom_site_type_symbol 
_atom_site_fract_x 
_atom_site_fract_y 
_atom_site_fract_z 
_atom_site_charge 
O1          O  0.06821551  0.46578130  0.51427161    -0.82300
C2          C  0.16476345  0.49156676  0.58807063     0.97100
O3          O  0.15513466  0.49730902  0.56055333    -0.71400
O4          O  0.12318867  0.48939601  0.50689694    -0.75000
Al5        Al  0.11463944  0.49979246  0.54999694     1.49000
C6          C  0.12533349  0.46563209  0.49270702     0.92300
O7          O  0.11331091  0.40588138  0.55461918    -0.81200
O8          O  0.08795592  0.42565409  0.60724343    -0.74800
Al9        Al  0.09241219  0.43874348  0.53723777     1.90100
O10         O  0.14322188  0.42553166  0.58800657    -0.73800
O11         O  0.09181834  0.47977876  0.61846765    -0.73700
O12         O  0.14914993  0.47837184  0.60726359    -0.79300
O13         O  0.10524922  0.01427281  0.58927392    -0.77600
O14         O  0.10818645  0.46408481  0.56275754    -1.13700
O15         O  0.07405745  0.00257392  0.53682219    -0.72900
C16         C  0.06170421  0.49195565  0.51742240     0.97800
C17         C  0.13448489  0.40376236  0.57350495     0.94200
Al18       Al  0.11730664  0.45340892  0.60190469     1.55600
O19         O  0.12132568  0.44237112  0.50714154    -0.77500
C20         C  0.09414189  0.50635678  0.61507059     0.98400
C21         C  0.06484694  0.42284918  0.59237395     0.93300
O22         O  0.06162625  0.43292625  0.56486792    -0.82800
O23         O  0.46525037  0.31562201  0.51910638    -0.82300
C24         C  0.36792741  0.29182474  0.58971471     0.97100
O25         O  0.37815138  0.28527695  0.56313068    -0.71400
O26         O  0.40939419  0.29426691  0.51120584    -0.75000
Al27       Al  0.41818349  0.28246798  0.55387058     1.49000
C28         C  0.40676726  0.31850635  0.49770733     0.92300
O29         O  0.42336937  0.37672986  0.55901594    -0.81200
O30         O  0.44726961  0.35438489  0.61217721    -0.74800
Al31       Al  0.44238347  0.34294370  0.54207574     1.90100
O32         O  0.39192619  0.35829166  0.59091123    -0.73800
O33         O  0.43944957  0.30082898  0.62342938    -0.73700
O34         O  0.38285539  0.30559510  0.60922418    -0.79300
O35         O  0.42585138  0.26424779  0.59463005    -0.77600
O36         O  0.42537241  0.31788648  0.56700553    -1.13700
O37         O  0.45720122  0.27456609  0.54225728    -0.72900
C38         C  0.47140147  0.28941387  0.52284279     0.97800
C39         C  0.40183647  0.37972924  0.57665786     0.94200
Al40       Al  0.41608965  0.32867646  0.60568268     1.55600
O41         O  0.41325653  0.34127840  0.51172733    -0.77500
C42         C  0.43642826  0.27440177  0.61986064     0.98400
C43         C  0.47060555  0.35602647  0.59785076     0.93300
O44         O  0.47330331  0.34627201  0.57037910    -0.82800
O45         O  0.22230581  0.18549971  0.64110960    -0.82300
C46         C  0.16976125  0.29181908  0.61871163     0.97100
O47         O  0.18224415  0.27589315  0.59948841    -0.71400
O48         O  0.23485049  0.26750115  0.61963422    -0.75000
Al49       Al  0.20551049  0.24316341  0.60497794     1.49000
C50         C  0.25618471  0.25674534  0.63373894     0.92300
O51         O  0.21732073  0.24510776  0.69978331    -0.81200
O52         O  0.15041051  0.20361499  0.66840352    -0.74800
Al53       Al  0.21895776  0.21626281  0.66933154     1.90100
O54         O  0.17068257  0.25064436  0.69868078    -0.73800
O55         O  0.14164040  0.23479137  0.61536725    -0.73700
O56         O  0.16372423  0.28265900  0.64606120    -0.79300
O57         O  0.17820132  0.21951221  0.58784247    -0.77600
O58         O  0.19453644  0.23413355  0.64381659    -1.13700
O59         O  0.23118380  0.21253070  0.59982027    -0.72900
C60         C  0.23289925  0.18905121  0.61418023     0.97800
C61         C  0.19435705  0.25129825  0.71335464     0.94200
Al62       Al  0.15943690  0.24248712  0.65615339     1.55600
O63         O  0.25314371  0.23527333  0.65216436    -0.77500
C64         C  0.15182973  0.22264057  0.59117978     0.98400
C65         C  0.16426276  0.18844613  0.68828512     0.93300
O66         O  0.19069532  0.19331843  0.69220152    -0.82800
O67         O  0.30957383  0.09721465  0.64095174    -0.82300
C68         C  0.36826831  0.49301160  0.61719947     0.97100
O69         O  0.35384761  0.01103202  0.59611162    -0.71400
O70         O  0.30008582  0.01815864  0.61203198    -0.75000
Al71       Al  0.32954147  0.04372248  0.60115661     1.49000
C72         C  0.27834615  0.02675581  0.62655714     0.92300
O73         O  0.31767180  0.03494189  0.69589473    -0.81200
O74         O  0.38190646  0.08281627  0.66700861    -0.74800
Al75       Al  0.31417475  0.06541812  0.66684595     1.90100
O76         O  0.36442501  0.03421636  0.69681784    -0.73800
O77         O  0.39289298  0.05235062  0.61373131    -0.73700
O78         O  0.37188971  0.00378989  0.64357789    -0.79300
O79         O  0.35654399  0.06938708  0.58664757    -0.77600
O80         O  0.33948914  0.05063062  0.64102108    -1.13700
O81         O  0.30352069  0.07443550  0.59632019    -0.72900
C82         C  0.30220203  0.09684610  0.61237473     0.97800
C83         C  0.34085752  0.03125763  0.71080368     0.94200
Al84       Al  0.37498422  0.04365803  0.65419354     1.55600
O85         O  0.28093026  0.04595749  0.64767207    -0.77500
C86         C  0.38276155  0.06525765  0.58959258     0.98400
C87         C  0.36693963  0.09609207  0.68711810     0.93300
O88         O  0.34115021  0.08875703  0.69099763    -0.82800
O89         O  0.30784593  0.42879465  0.89471748    -0.82300
C90         C  0.40829062  0.49041350  0.87101542     0.97100
O91         O  0.39279213  0.47704890  0.85167001    -0.71400
O92         O  0.38942506  0.42380621  0.87112376    -0.75000
Al93       Al  0.36204095  0.45091030  0.85730652     1.49000
C94         C  0.38172939  0.40169494  0.88583073     0.92300
O95         O  0.36775751  0.44096021  0.95201792    -0.81200
O96         O  0.32360180  0.00535973  0.91841827    -0.74800
Al97       Al  0.33869976  0.43589584  0.92214122     1.90100
O98         O  0.36709844  0.48793779  0.95162645    -0.73800
O99         O  0.35372874  0.01596855  0.86517536    -0.73700
O100        O  0.39906607  0.49564678  0.89854681    -0.79300
O101        O  0.33495511  0.47626028  0.84108931    -0.77600
O102        O  0.35333098  0.46141062  0.89616621    -1.13700
O103        O  0.33377177  0.42235086  0.85253963    -0.72900
C104        C  0.31100130  0.41905979  0.86734418     0.97800
C105        C  0.37026516  0.46434206  0.96631399     0.94200
Al106      Al  0.35868901  0.49748024  0.90800034     1.55600
O107        O  0.36102572  0.40305642  0.90522539    -0.77500
C108        C  0.33867930  0.50274120  0.84240088     0.98400
C109        C  0.30573265  0.48903995  0.93923650     0.93300
O110        O  0.31326977  0.46308315  0.94418357    -0.82800
O111        O  0.21723591  0.35031974  0.88948352    -0.82300
C112        C  0.11429300  0.29285590  0.87048441     0.97100
O113        O  0.12808163  0.30756622  0.85090214    -0.71400
O114        O  0.13597717  0.36075025  0.86846364    -0.75000
Al115      Al  0.16049225  0.33169548  0.85418944     1.49000
C116        C  0.14581145  0.38236520  0.88235934     0.92300
O117        O  0.15975212  0.34247905  0.94935489    -0.81200
O118        O  0.20453455  0.27783782  0.91681016    -0.74800
Al119      Al  0.18766727  0.34582765  0.91807386     1.90100
O120        O  0.15778326  0.29547545  0.94923767    -0.73800
O121        O  0.17230920  0.26752291  0.86547067    -0.73700
O122        O  0.12501811  0.28712632  0.89737458    -0.79300
O123        O  0.18432313  0.30474313  0.83660952    -0.77600
O124        O  0.17081152  0.32079180  0.89307538    -1.13700
O125        O  0.19069167  0.35803048  0.84730353    -0.72900
C126        C  0.21436512  0.35884585  0.86134965     0.97800
C127        C  0.15638452  0.31905034  0.96386340     0.94200
Al128      Al  0.16511839  0.28497229  0.90612603     1.55600
O129        O  0.16705790  0.37959327  0.90112556    -0.77500
C130        C  0.18296783  0.27822139  0.84069523     0.98400
C131        C  0.21872824  0.29224788  0.93662920     0.93300
O132        O  0.21233967  0.31842354  0.94047446    -0.82800
O133        O  0.08227424  0.09439649  0.76455076    -0.82300
C134        C  0.10776769  0.49544974  0.83919413     0.97100
O135        O  0.11529204  0.00651633  0.80982249    -0.71400
O136        O  0.10804961  0.03910107  0.75744967    -0.75000
Al137      Al  0.11637394  0.04725608  0.80104345     1.49000
C138        C  0.08530603  0.03652732  0.74135494     0.92300
O139        O  0.02261109  0.04511417  0.79968476    -0.81200
O140        O  0.03963751  0.06965900  0.85430800    -0.74800
Al141      Al  0.05507310  0.06812324  0.78491786     1.90100
O142        O  0.04297961  0.01503076  0.83309537    -0.73800
O143        O  0.09290861  0.06765724  0.86874591    -0.73700
O144        O  0.09503492  0.01082532  0.85577069    -0.79300
O145        O  0.13161585  0.05533299  0.84326766    -0.77600
O146        O  0.08014401  0.05241346  0.81161677    -1.13700
O147        O  0.12228920  0.08685767  0.79030315    -0.72900
C148        C  0.10820821  0.10103263  0.76974959     0.97800
C149        C  0.02098061  0.02396693  0.81878984     0.94200
Al150      Al  0.06873751  0.04168618  0.84971183     1.55600
O151        O  0.06137169  0.04038430  0.75390114    -0.77500
C152        C  0.11954963  0.06568206  0.86749447     0.98400
C153        C  0.03481506  0.09274649  0.83987528     0.93300
O154        O  0.04576569  0.09788070  0.81333015    -0.82800
O155        O  0.44308248  0.18046893  0.78439340    -0.82300
C156        C  0.42128272  0.29101470  0.83962958     0.97100
O157        O  0.40427556  0.27581959  0.82321640    -0.71400
O158        O  0.42138519  0.25682133  0.76594877    -0.75000
Al159      Al  0.40692528  0.23834529  0.80289537     1.49000
C160        C  0.44100573  0.24739371  0.74841936     0.92300
O161        O  0.49684067  0.24073336  0.80367838    -0.81200
O162        O  0.45542852  0.20216134  0.87198274    -0.74800
Al163      Al  0.46782751  0.21199489  0.79645789     1.90100
O164        O  0.48906822  0.24576825  0.85399818    -0.73800
O165        O  0.41335232  0.23853169  0.87452363    -0.73700
O166        O  0.44453997  0.28036515  0.84973435    -0.79300
O167        O  0.38739621  0.21948209  0.83719379    -0.77600
O168        O  0.44149219  0.23037287  0.81894545    -1.13700
O169        O  0.40267717  0.20358124  0.77925413    -0.72900
C170        C  0.41778217  0.18177513  0.77349108     0.97800
C171        C  0.00493906  0.24851883  0.82998301     0.94200
Al172      Al  0.44984479  0.24077604  0.85876811     1.55600
O173        O  0.45948591  0.23012255  0.75847845    -0.77500
C174        C  0.39157669  0.22543064  0.86588096     0.98400
C175        C  0.47176185  0.18485323  0.85821554     0.93300
O176        O  0.48089081  0.18953595  0.83073036    -0.82800
O177        O  0.31442479  0.21533379  0.01729697    -0.82300
C178        C  0.41155187  0.24424582  0.08742248     0.97100
O179        O  0.40111543  0.24935793  0.06019773    -0.71400
O180        O  0.36796994  0.24074855  0.00849028    -0.75000
Al181      Al  0.36061643  0.25086133  0.05156628     1.49000
C182        C  0.37010987  0.21746696  0.99353703     0.92300
O183        O  0.36329452  0.15678552  0.05726274    -0.81200
O184        O  0.33716901  0.17723436  0.11068510    -0.74800
Al185      Al  0.34053623  0.18901881  0.03969299     1.90100
O186        O  0.39211487  0.17760670  0.09107941    -0.73800
O187        O  0.33958458  0.23143289  0.12043633    -0.73700
O188        O  0.39688593  0.23141504  0.10786965    -0.79300
O189        O  0.35304859  0.26854112  0.09237364    -0.77600
O190        O  0.35579390  0.21505490  0.06478952    -1.13700
O191        O  0.32095187  0.25634805  0.04091140    -0.72900
C192        C  0.30723147  0.24136763  0.02109333     0.97800
C193        C  0.38393963  0.15534690  0.07711223     0.94200
Al194      Al  0.36565236  0.20542391  0.10412216     1.55600
O195        O  0.36835154  0.19386177  0.00810941    -0.77500
C196        C  0.34154314  0.25798380  0.11681477     0.98400
C197        C  0.31411765  0.17373383  0.09600416     0.93300
O198        O  0.31078486  0.18231581  0.06797591    -0.82800
O199        O  0.05703233  0.35125483  0.13836627    -0.82300
C200        C  0.11174517  0.24573836  0.11696750     0.97100
O201        O  0.10071002  0.26266298  0.09702008    -0.71400
O202        O  0.04674749  0.27072149  0.11304843    -0.75000
Al203      Al  0.07688403  0.29553025  0.10184671     1.49000
C204        C  0.02523256  0.27982221  0.12784984     0.92300
O205        O  0.06213956  0.29021278  0.19677013    -0.81200
O206        O  0.12982837  0.33177896  0.16950632    -0.74800
Al207      Al  0.06097468  0.31967737  0.16635577     1.90100
O208        O  0.10864058  0.28438268  0.19819615    -0.73800
O209        O  0.14001452  0.30191169  0.11652717    -0.73700
O210        O  0.11614758  0.25391400  0.14507198    -0.79300
O211        O  0.10497452  0.32046150  0.08806707    -0.77600
O212        O  0.08616099  0.30276586  0.14184926    -1.13700
O213        O  0.05086606  0.32576387  0.09570726    -0.72900
C214        C  0.04667077  0.34811414  0.11104095     0.97800
C215        C  0.08455461  0.28292498  0.21131384     0.94200
Al216      Al  0.12082543  0.29359581  0.15618519     1.55600
O217        O  0.02798302  0.30015799  0.14758931    -0.77500
C218        C  0.13105264  0.31548107  0.09225153     0.98400
C219        C  0.11540977  0.34667644  0.18854686     0.93300
O220        O  0.08869958  0.34243071  0.19048555    -0.82800
O221        O  0.21542282  0.07103512  0.01646972    -0.82300
C222        C  0.11858006  0.04321571  0.08709761     0.97100
O223        O  0.12995506  0.03630216  0.06124670    -0.71400
O224        O  0.16090147  0.04710931  0.00937423    -0.75000
Al225      Al  0.17015137  0.03636850  0.05261072     1.49000
C226        C  0.15670887  0.07105331  0.99552961     0.92300
O227        O  0.17025422  0.13140197  0.05620262    -0.81200
O228        O  0.19394602  0.11047174  0.10962847    -0.74800
Al229      Al  0.19083086  0.09788865  0.03960021     1.90100
O230        O  0.13881522  0.11167056  0.08706752    -0.73800
O231        O  0.18803870  0.05738976  0.12254780    -0.73700
O232        O  0.13174723  0.05899687  0.10624860    -0.79300
O233        O  0.17877657  0.01936496  0.09406958    -0.77600
O234        O  0.17474306  0.07241249  0.06492806    -1.13700
O235        O  0.20970750  0.03080339  0.04180924    -0.72900
C236        C  0.22291233  0.04517047  0.02117953     0.97800
C237        C  0.14848019  0.13365308  0.07374282     0.94200
Al238      Al  0.16395287  0.08351244  0.10309494     1.55600
O239        O  0.16194802  0.09441108  0.00910421    -0.77500
C240        C  0.18790655  0.03076667  0.11938175     0.98400
C241        C  0.21759278  0.11223544  0.09594628     0.93300
O242        O  0.22106706  0.10282923  0.06837593    -0.82800
O243        O  0.46378134  0.43386205  0.14198176    -0.82300
C244        C  0.42166789  0.04150433  0.11773482     0.97100
O245        O  0.43408997  0.02533183  0.09867765    -0.71400
O246        O  0.48657946  0.01374095  0.11646957    -0.75000
Al247      Al  0.45004395  0.49248167  0.10635726     1.49000
C248        C  0.00864797  0.00178882  0.12945636     0.92300
O249        O  0.46395759  0.49360170  0.19964702    -0.81200
O250        O  0.39490160  0.45337467  0.17091450    -0.74800
Al251      Al  0.46345767  0.46443353  0.16985511     1.90100
O252        O  0.42482027  0.00003969  0.19805698    -0.73800
O253        O  0.38519815  0.48516333  0.11874246    -0.73700
O254        O  0.41616526  0.03243584  0.14532926    -0.79300
O255        O  0.42089872  0.47143241  0.08903557    -0.77600
O256        O  0.43915098  0.48339456  0.14518844    -1.13700
O257        O  0.47299963  0.45953020  0.09977548    -0.72900
C258        C  0.47191584  0.43572700  0.11380582     0.97800
C259        C  0.44915851  0.99948896  0.21145958     0.94200
Al260      Al  0.40434465  0.49225557  0.15870559     1.55600
O261        O  0.99841411  0.48027211  0.15169799    -0.77500
C262        C  0.39466638  0.47384132  0.09381787     0.98400
C263        C  0.40884066  0.43821069  0.19067719     0.93300
O264        O  0.43527022  0.44297712  0.19419542    -0.82800
O265        O  0.47025399  0.09893149  0.38539925    -0.82300
C266        C  0.36803530  0.03916406  0.36816156     0.97100
O267        O  0.38072730  0.05481470  0.34859081    -0.71400
O268        O  0.38829263  0.10896338  0.36553600    -0.75000
Al269      Al  0.41276676  0.07943525  0.35111895     1.49000
C270        C  0.39855314  0.13070762  0.37897643     0.92300
O271        O  0.41283254  0.09090063  0.44578341    -0.81200
O272        O  0.45919844  0.02700633  0.41457131    -0.74800
Al273      Al  0.44074025  0.09436989  0.41448170     1.90100
O274        O  0.41129764  0.04378775  0.44585958    -0.73800
O275        O  0.42811584  0.01528130  0.36300277    -0.73700
O276        O  0.37957102  0.03298723  0.39445991    -0.79300
O277        O  0.43633557  0.05274814  0.33287212    -0.77600
O278        O  0.42404602  0.06879120  0.38986300    -1.13700
O279        O  0.44248177  0.10576685  0.34383034    -0.72900
C280        C  0.46623796  0.10774270  0.35750252     0.97800
C281        C  0.40904323  0.06744714  0.46018428     0.94200
Al282      Al  0.41965018  0.03281826  0.40328918     1.55600
O283        O  0.41999062  0.12785852  0.39737914    -0.77500
C284        C  0.43763525  0.02632086  0.33783022     0.98400
C285        C  0.47273060  0.04195293  0.43444584     0.93300
O286        O  0.46565265  0.06793867  0.43764637    -0.82800
O287        O  0.05691652  0.17813682  0.39123284    -0.82300
C288        C  0.15866776  0.23707921  0.37018618     0.97100
O289        O  0.14443446  0.22197656  0.35147670    -0.71400
O290        O  0.13938864  0.16953200  0.37268357    -0.75000
Al291      Al  0.11339498  0.19700790  0.35623403     1.49000
C292        C  0.12997953  0.14769739  0.38665735     0.92300
O293        O  0.11586628  0.18743806  0.45067618    -0.81200
O294        O  0.06843765  0.25032644  0.41768600    -0.74800
Al295      Al  0.08724389  0.18321438  0.41999724     1.90100
O296        O  0.11725965  0.23465756  0.44905321    -0.73800
O297        O  0.09873291  0.26075110  0.36457417    -0.73700
O298        O  0.14825064  0.24399356  0.39660755    -0.79300
O299        O  0.08833213  0.22245126  0.33694943    -0.77600
O300        O  0.10307888  0.20847102  0.39438548    -1.13700
O301        O  0.08439007  0.16962371  0.35065807    -0.72900
C302        C  0.06036352  0.16946686  0.36339128     0.97800
C303        C  0.12036837  0.21113340  0.46393892     0.94200
Al304      Al  0.10790625  0.24456794  0.40602948     1.55600
O305        O  0.10813534  0.14999270  0.40402910    -0.77500
C306        C  0.08908717  0.24911679  0.33963203     0.98400
C307        C  0.05547315  0.23541196  0.43813901     0.93300
O308        O  0.06290526  0.20962668  0.44226636    -0.82800
O309        O  0.32896280  0.34374790  0.26912239    -0.82300
C310        C  0.35956540  0.24496895  0.33897901     0.97100
O311        O  0.36484999  0.25619997  0.31230495    -0.71400
O312        O  0.35580115  0.28969659  0.26075094    -0.75000
Al313      Al  0.36482313  0.29711176  0.30418435     1.49000
C314        C  0.33288252  0.28698457  0.24508831     0.92300
O315        O  0.27108316  0.29329817  0.30560372    -0.81200
O316        O  0.28946291  0.31835312  0.36051410    -0.74800
Al317      Al  0.30281599  0.31683014  0.29011346     1.90100
O318        O  0.29194717  0.26366912  0.33918636    -0.73800
O319        O  0.34328453  0.31612028  0.37298187    -0.73700
O320        O  0.34515917  0.25891276  0.35873996    -0.79300
O321        O  0.38112917  0.30458873  0.34564880    -0.77600
O322        O  0.32871919  0.30132204  0.31600831    -1.13700
O323        O  0.36950359  0.33709483  0.29409988    -0.72900
C324        C  0.35479104  0.35096979  0.27380622     0.97800
C325        C  0.26982385  0.27225880  0.32487379     0.94200
Al326      Al  0.31850415  0.29020856  0.35451991     1.55600
O327        O  0.30908575  0.28941395  0.25847155    -0.77500
C328        C  0.36983215  0.31451101  0.37041455     0.98400
C329        C  0.28401528  0.34140896  0.34618061     0.93300
O330        O  0.29373353  0.34630708  0.31898916    -0.82800
O331        O  0.19529867  0.43171546  0.28081130    -0.82300
C332        C  0.17234904  0.04016431  0.33771425     0.97100
O333        O  0.15477964  0.02492239  0.32218524    -0.71400
O334        O  0.17228340  0.00719480  0.26470095    -0.75000
Al335      Al  0.16066982  0.48932166  0.30165855     1.49000
C336        C  0.19282224  0.99910705  0.24754970     0.92300
O337        O  0.25300553  0.48711248  0.30586870    -0.81200
O338        O  0.20743897  0.45461563  0.37221707    -0.74800
Al339      Al  0.22121789  0.46162088  0.29602262     1.90100
O340        O  0.24176272  0.49645658  0.35409730    -0.73800
O341        O  0.16566653  0.49284376  0.37239207    -0.73700
O342        O  0.19636033  0.03006860  0.34604656    -0.79300
O343        O  0.14156570  0.47019395  0.33624464    -0.77600
O344        O  0.19512651  0.48126827  0.31775748    -1.13700
O345        O  0.15533673  0.45520774  0.27843262    -0.72900
C346        C  0.16945983  0.43322574  0.27180148     0.97800
C347        C  0.25664749  0.99546509  0.33102533     0.94200
Al348      Al  0.20285679  0.49296224  0.35726024     1.55600
O349        O  0.21566488  0.48233820  0.25863535    -0.77500
C350        C  0.14560302  0.47684499  0.36478112     0.98400
C351        C  0.22183916  0.43537045  0.35867642     0.93300
O352        O  0.23003130  0.43770596  0.33042903    -0.82800
C353        C  0.26471124  0.36199672  0.36062543    -0.00600
C354        C  0.27612195  0.38440544  0.37834535    -0.12500
C355        C  0.25906657  0.40797821  0.38584081     0.01600
C356        C  0.23069301  0.40918603  0.37475508    -0.00700
C357        C  0.21815894  0.38446159  0.36254441    -0.12500
C358        C  0.23515950  0.36109123  0.35450729     0.01500
H359        H  0.29871977  0.38458262  0.38397403     0.14500
H360        H  0.19626251  0.38537330  0.35405812     0.14500
C361        C  0.22228422  0.33834843  0.33656360     0.36100
C362        C  0.27213838  0.43257623  0.40030698     0.36000
N363        N  0.21132152  0.32070025  0.32187179    -0.44200
N364        N  0.28259536  0.45226669  0.41198876    -0.44200
C365        C  0.24188837  0.26118285  0.33559301    -0.00600
C366        C  0.23678448  0.26022690  0.36837864    -0.12500
C367        C  0.20988062  0.25323849  0.38040532     0.01600
C368        C  0.18741990  0.24639159  0.35946774    -0.00700
C369        C  0.19279701  0.24694680  0.32663275    -0.12500
C370        C  0.21955314  0.25441100  0.31467428     0.01500
H371        H  0.25374236  0.26584551  0.38475519     0.14500
H372        H  0.17588266  0.24176657  0.31002041     0.14500
C373        C  0.22370704  0.25461881  0.28093846     0.36100
C374        C  0.20611900  0.25291413  0.41422155     0.36000
N375        N  0.22710563  0.25470487  0.25389498    -0.44200
N376        N  0.20303266  0.25271456  0.44132090    -0.44200
C377        C  0.16273040  0.06807202  0.35043129    -0.00600
C378        C  0.13520610  0.06953941  0.36293387    -0.12500
C379        C  0.12500592  0.09434136  0.37743751     0.01600
C380        C  0.14215876  0.11914791  0.37853659    -0.00700
C381        C  0.17007508  0.11746326  0.36658595    -0.12500
C382        C  0.18060545  0.09208507  0.35319235     0.01500
H383        H  0.12167774  0.05087828  0.36182150     0.14500
H384        H  0.18356908  0.13623454  0.36714810     0.14500
C385        C  0.20933473  0.09152498  0.34134051     0.36100
C386        C  0.09653899  0.09365511  0.39008681     0.36000
N387        N  0.23236752  0.09091315  0.33183970    -0.44200
N388        N  0.07379596  0.09285481  0.40037674    -0.44200
C389        C  0.48851446  0.12384982  0.34277634    -0.00600
C390        C  0.48495657  0.15359940  0.34275308    -0.12500
C391        C  0.01003472  0.16958315  0.34551571     0.01600
C392        C  0.03689582  0.15623256  0.34704026    -0.00700
C393        C  0.04001102  0.12726781  0.33997859    -0.12500
C394        C  0.01608487  0.11005839  0.33886446     0.01500
H395        H  0.46388464  0.16289450  0.34559145     0.14500
H396        H  0.06101011  0.11744682  0.34025677     0.14500
C397        C  0.02011002  0.07941856  0.33969259     0.36100
C398        C  0.00660084  0.19993227  0.35071159     0.36000
N399        N  0.02410887  0.05498862  0.34098156    -0.44200
N400        N  0.00384205  0.22423787  0.35487811    -0.44200
C401        C  0.38796551  0.15986429  0.36954310    -0.00600
C402        C  0.38508030  0.16643395  0.33710425    -0.12500
C403        C  0.37692346  0.19397708  0.32643397     0.01600
C404        C  0.37033162  0.21564927  0.34842004    -0.00700
C405        C  0.37335549  0.20894673  0.38092869    -0.12500
C406        C  0.38263170  0.18174268  0.39148390     0.01500
H407        H  0.38991581  0.15007114  0.31988260     0.14500
H408        H  0.36881629  0.22521216  0.39834866     0.14500
C409        C  0.38597327  0.17662947  0.42498700     0.36100
C410        C  0.37522107  0.19914828  0.29280584     0.36000
N411        N  0.38873810  0.17250491  0.45183845    -0.44200
N412        N  0.37404011  0.20328665  0.26582982    -0.44200
C413        C  0.28575322  0.00646181  0.33911046    -0.00600
C414        C  0.29100576  0.01460960  0.37080416    -0.12500
C415        C  0.31749013  0.02487799  0.38087470     0.01600
C416        C  0.33975072  0.02756124  0.35911759    -0.00700
C417        C  0.33483861  0.01948036  0.32750369    -0.12500
C418        C  0.30832892  0.00876269  0.31742704     0.01500
H419        H  0.27424847  0.01314988  0.38818346     0.14500
H420        H  0.35197447  0.02122039  0.31060699     0.14500
C421        C  0.30527631  0.00007018  0.28494092     0.36100
C422        C  0.32074471  0.03372087  0.41336018     0.36000
N423        N  0.30314643  0.99304900  0.25886013    -0.44200
N424        N  0.32325425  0.04088456  0.43935963    -0.44200
C425        C  0.36836457  0.37444256  0.25368822    -0.00600
C426        C  0.35349941  0.38591060  0.22721980    -0.12500
C427        C  0.36599446  0.40606852  0.20633623     0.01600
C428        C  0.39436447  0.41569218  0.21124793    -0.00700
C429        C  0.40916870  0.40423053  0.23767665    -0.12500
C430        C  0.39674827  0.38412506  0.25850363     0.01500
H431        H  0.33198435  0.37873116  0.22234152     0.14500
H432        H  0.43077746  0.41120017  0.24243810     0.14500
C433        C  0.41403117  0.37387908  0.28465349     0.36100
C434        C  0.34918265  0.41599721  0.17967123     0.36000
N435        N  0.42794901  0.36563302  0.30556474    -0.44200
N436        N  0.33569796  0.42394127  0.15827588    -0.44200
C437        C  0.45066068  0.00216249  0.24586276    -0.00600
C438        C  0.42386708  0.49056187  0.26750918    -0.12500
C439        C  0.42907195  0.99026759  0.29631822     0.01600
C440        C  0.44780102  0.00930598  0.31130894    -0.00700
C441        C  0.47060001  0.02084830  0.29415789    -0.12500
C442        C  0.47230632  0.01730313  0.26152916     0.01500
H443        H  0.40780703  0.47688592  0.25695168     0.14500
H444        H  0.48508310  0.03547059  0.30563091     0.14500
C445        C  0.49478883  0.03153549  0.24458752     0.36100
C446        C  0.40262554  0.48084745  0.31900111     0.36000
N447        N  0.51290885  0.04295082  0.23119902    -0.44200
N448        N  0.38547085  0.46961354  0.33404328    -0.44200
C449        C  0.19345481  0.00644911  0.21398919    -0.00600
C450        C  0.17406307  0.49357810  0.19727377    -0.12500
C451        C  0.17533946  0.99556835  0.16141469     0.01600
C452        C  0.19530178  0.01441962  0.14814774    -0.00700
C453        C  0.21658325  0.02604514  0.16788126    -0.12500
C454        C  0.21608559  0.02173083  0.20059942     0.01500
H455        H  0.15691816  0.48273375  0.20951084     0.14500
H456        H  0.23235532  0.04033048  0.15791144     0.14500
C457        C  0.23826395  0.03395984  0.22004766     0.36100
C458        C  0.14929074  0.48325992  0.14816589     0.36000
N459        N  0.25609826  0.04361251  0.23567645    -0.44200
N460        N  0.12986855  0.47283800  0.13594960    -0.44200
C461        C  0.03755578  0.01226731  0.12123170    -0.00600
C462        C  0.05661815  0.99349232  0.10633443    -0.12500
C463        C  0.08213940  0.00345890  0.09307144     0.01600
C464        C  0.08995727  0.03245168  0.09635192    -0.00700
C465        C  0.07100376  0.05114277  0.11160834    -0.12500
C466        C  0.04468394  0.04152822  0.12303923     0.01500
H467        H  0.04172133  0.47064893  0.10347415     0.14500
H468        H  0.07658850  0.07352528  0.11412473     0.14500
C469        C  0.02522616  0.06208363  0.13642508     0.36100
C470        C  0.09240285  0.48002835  0.07860623     0.36000
N471        N  0.50976175  0.07833763  0.15005824    -0.44200
N472        N  0.10559766  0.46347487  0.06463232    -0.44200
C473        C  0.12987764  0.36854011  0.20975466    -0.00600
C474        C  0.11329759  0.38948159  0.22481410    -0.12500
C475        C  0.12540965  0.40986527  0.24540613     0.01600
C476        C  0.15529380  0.41000904  0.25203190    -0.00700
C477        C  0.17182311  0.38859501  0.23755278    -0.12500
C478        C  0.15959528  0.36815090  0.21689969     0.01500
H479        H  0.09050128  0.39010896  0.22038334     0.14500
H480        H  0.19459262  0.38792314  0.24208061     0.14500
C481        C  0.17817091  0.34646370  0.20420937     0.36100
C482        C  0.10612386  0.43024840  0.25941916     0.36000
N483        N  0.19304283  0.32899294  0.19413666    -0.44200
N484        N  0.09055342  0.44654957  0.27051028    -0.44200
C485        C  0.08262085  0.26536973  0.31066413    -0.00600
C486        C  0.06081168  0.25481894  0.29095618    -0.12500
C487        C  0.06098072  0.25996427  0.25838512     0.01600
C488        C  0.08309256  0.27628760  0.24523874    -0.00700
C489        C  0.10351211  0.28874767  0.26525212    -0.12500
C490        C  0.10344611  0.28347575  0.29775625     0.01500
H491        H  0.04512737  0.24031860  0.30064784     0.14500
H492        H  0.12000529  0.30218739  0.25533503     0.14500
C493        C  0.12666925  0.29442218  0.31668375     0.36100
C494        C  0.03994389  0.24600571  0.23879149     0.36000
N495        N  0.14528828  0.30310214  0.33188809    -0.44200
N496        N  0.02323512  0.23453602  0.22315832    -0.44200
C497        C  0.02433374  0.36715057  0.10030182    -0.00600
C498        C  0.99710612  0.36147787  0.11174971    -0.12500
C499        C  0.47618263  0.38322486  0.11058024     0.01600
C500        C  0.48389297  0.41044612  0.09926510    -0.00700
C501        C  0.00884211  0.41332446  0.08163705    -0.12500
C502        C  0.02941651  0.39177823  0.08220434     0.01500
H503        H  0.99277716  0.34144240  0.12387831     0.14500
H504        H  0.01385550  0.43386523  0.07098777     0.14500
C505        C  0.05552120  0.39582879  0.06522029     0.36100
C506        C  0.44884204  0.37796023  0.12490507     0.36000
N507        N  0.07585220  0.39932350  0.05052214    -0.44200
N508        N  0.42696453  0.37391364  0.13644689    -0.44200
C509        C  0.13658099  0.16219277  0.08265886    -0.00600
C510        C  0.12414322  0.16509146  0.11275773    -0.12500
C511        C  0.11620263  0.19196215  0.12459834     0.01600
C512        C  0.12017505  0.21673632  0.10609230    -0.00700
C513        C  0.13141898  0.21380004  0.07552427    -0.12500
C514        C  0.13991820  0.18701812  0.06390520    -0.03300
H515        H  0.12145672  0.14637376  0.12769002     0.14500
H516        H  0.13411933  0.23264457  0.06079848     0.14500
C517        C  0.15215395  0.18567998  0.03280112     0.36100
C518        C  0.10328530  0.19348243  0.15538780     0.36000
N519        N  0.16206297  0.18446338  0.00791543    -0.44200
N520        N  0.09282124  0.19488372  0.17998356    -0.44200
C521        C  0.33382927  0.28374193  0.21030777    -0.00600
C522        C  0.30948015  0.27389000  0.19427824    -0.12500
C523        C  0.30978759  0.26968153  0.16162680     0.01600
C524        C  0.33478069  0.27521286  0.14451010    -0.00700
C525        C  0.35778447  0.28834184  0.15966416    -0.12500
C526        C  0.35760131  0.29268470  0.19230234     0.01500
H527        H  0.29045065  0.26853096  0.20735160     0.14500
H528        H  0.37704058  0.29270762  0.14652314     0.14500
C529        C  0.38234503  0.30600812  0.20631589     0.36100
C530        C  0.28460176  0.25861379  0.14626406     0.36000
N531        N  0.40227759  0.31673954  0.21721782    -0.44200
N532        N  0.26416796  0.25013493  0.13411030    -0.44200
C533        C  0.29102190  0.15835180  0.11066147    -0.00600
C534        C  0.26497592  0.17272122  0.11298103    -0.12500
C535        C  0.23974460  0.15732937  0.11354486     0.01600
C536        C  0.24096619  0.12737184  0.11075019    -0.00700
C537        C  0.26706839  0.11297240  0.11345198    -0.12500
C538        C  0.29232891  0.12839785  0.11384732     0.01500
H539        H  0.26422779  0.19582358  0.11095159     0.14500
H540        H  0.26777873  0.08981636  0.11192850     0.14500
C541        C  0.31890842  0.11279491  0.11340642     0.36100
C542        C  0.21320584  0.17302257  0.11291007     0.36000
N543        N  0.33979292  0.09955588  0.11333276    -0.44200
N544        N  0.19235011  0.18630872  0.11283592    -0.44200
C545        C  0.44074834  0.25357821  0.09675488    -0.00600
C546        C  0.44522130  0.26355789  0.12771603    -0.12500
C547        C  0.47242453  0.27135083  0.13865853     0.01600
C548        C  0.49620120  0.26903713  0.11857698    -0.00700
C549        C  0.49176720  0.25843381  0.08777455    -0.12500
C550        C  0.46447222  0.25080913  0.07678804     0.01500
H551        H  0.42725990  0.26533386  0.14354801     0.14500
H552        H  0.50964588  0.25655539  0.07186703     0.14500
C553        C  0.46163591  0.23903018  0.04547294     0.36100
C554        C  0.47532866  0.28094224  0.17087342     0.36000
N555        N  0.45945919  0.22942157  0.02043871    -0.44200
N556        N  0.97817526  0.28757571  0.19748171    -0.44200
C557        C  0.41334497  0.07091502  0.10668447    -0.00600
C558        C  0.41079452  0.09296397  0.12870924    -0.12500
C559        C  0.40291798  0.12081812  0.11931756     0.01600
C560        C  0.39629070  0.12709269  0.08709951    -0.00700
C561        C  0.39902981  0.10510987  0.06500953    -0.12500
C562        C  0.40811611  0.07754485  0.07421454     0.01500
H563        H  0.41507398  0.08845522  0.15351443     0.14500
H564        H  0.39409670  0.10951644  0.04032208     0.14500
C565        C  0.41152372  0.05660115  0.04956486     0.36100
C566        C  0.40027165  0.14192611  0.14387956     0.36000
N567        N  0.41453144  0.04003928  0.02964314    -0.44200
N568        N  0.39832211  0.15853766  0.16391159    -0.44200
C569        C  0.37241575  0.21788889  0.89156092    -0.00600
C570        C  0.36144583  0.24153655  0.90758317    -0.12500
C571        C  0.36116252  0.24219346  0.94056824     0.01600
C572        C  0.37055055  0.21793152  0.95834799    -0.00700
C573        C  0.37740515  0.19277360  0.94190118    -0.12500
C574        C  0.37840168  0.19264619  0.90877866     0.01500
H575        H  0.35702716  0.26116232  0.89440908     0.14500
H576        H  0.38324963  0.17347927  0.95490541     0.14500
C577        C  0.38849317  0.16734381  0.89293808     0.36100
C578        C  0.35245345  0.26874505  0.95496679     0.36000
N579        N  0.39643331  0.14704954  0.88013704    -0.44200
N580        N  0.34572815  0.29027899  0.96607995    -0.44200
C581        C  0.14862424  0.07180069  0.96193372    -0.00600
C582        C  0.16260256  0.05305050  0.94137110    -0.12500
C583        C  0.15603278  0.05293441  0.90907619     0.01600
C584        C  0.13508739  0.07193690  0.89700467    -0.00700
C585        C  0.12277365  0.09218417  0.91731964    -0.12500
C586        C  0.12917447  0.09212131  0.94959644     0.01500
H587        H  0.17837969  0.03809845  0.95068555     0.14500
H588        H  0.10639949  0.10666137  0.90834560     0.14500
C589        C  0.11373175  0.11143773  0.96983718     0.36100
C590        C  0.16931610  0.03149601  0.88961518     0.36000
N591        N  0.10119416  0.12673795  0.98607708    -0.44200
N592        N  0.17995774  0.01422794  0.87412773    -0.44200
C593        C  0.48006902  0.15751024  0.87202559    -0.00600
C594        C  0.46860823  0.13436508  0.85548972    -0.12500
C595        C  0.98579471  0.11284481  0.84285876     0.01600
C596        C  0.01437648  0.11260850  0.85326191    -0.00700
C597        C  0.02348361  0.13197998  0.87624122    -0.12500
C598        C  0.00558192  0.15452021  0.88497488     0.01500
H599        H  0.44722505  0.13610342  0.84560859     0.14500
H600        H  0.04515949  0.13085891  0.88531939     0.14500
C601        C  0.01658535  0.17654285  0.90535814     0.36100
C602        C  0.47502818  0.09256013  0.82236627     0.36000
N603        N  0.02548356  0.19401934  0.92192266    -0.44200
N604        N  0.46526256  0.07714165  0.80400348    -0.44200
C605        C  0.28384229  0.25461046  0.00049628    -0.00600
C606        C  0.26719185  0.23702432  0.98065320    -0.12500
C607        C  0.24650491  0.24846046  0.95942325     0.01600
C608        C  0.24189883  0.27850586  0.95707558    -0.00700
C609        C  0.25854959  0.29600694  0.97689162    -0.12500
C610        C  0.27904605  0.28461175  0.99820501     0.01500
H611        H  0.27024664  0.21402749  0.98170035     0.14500
H612        H  0.25552607  0.31900858  0.97591356     0.14500
C613        C  0.29519045  0.30468880  0.01683412     0.36100
C614        C  0.22970245  0.22853624  0.94126611     0.36000
N615        N  0.30816329  0.32090105  0.03159536    -0.44200
N616        N  0.21604765  0.21254017  0.92696396    -0.44200
C617        C  0.15434450  0.31918353  0.99878101    -0.00600
C618        C  0.14705304  0.34482200  0.01402950    -0.12500
C619        C  0.14498559  0.34573977  0.04693204     0.01600
C620        C  0.14904180  0.32061055  0.06488446    -0.00700
C621        C  0.16002147  0.29624427  0.05038993    -0.12500
C622        C  0.16295418  0.29532639  0.01761925     0.01500
H623        H  0.14255260  0.36402715  0.00033775     0.14500
H624        H  0.16377592  0.27699648  0.06431761     0.14500
C625        C  0.17499068  0.26957342  0.00452685     0.36100
C626        C  0.13836700  0.37244508  0.06219074     0.36000
N627        N  0.18488197  0.24879602  0.99463545    -0.44200
N628        N  0.13385965  0.39385625  0.07482620    -0.44200
C629        C  0.03404602  0.25893095  0.83673367    -0.00600
C630        C  0.04907126  0.24522571  0.86142548    -0.12500
C631        C  0.07448051  0.25630521  0.87362570     0.01600
C632        C  0.08601301  0.28149752  0.86045584    -0.00700
C633        C  0.07109723  0.29507306  0.83529550    -0.12500
C634        C  0.04506899  0.28433588  0.82382566     0.01500
H635        H  0.04042024  0.22591889  0.87177856     0.14500
H636        H  0.07941240  0.31461591  0.82505043     0.14500
C637        C  0.02907409  0.30100508  0.80089356     0.36100
C638        C  0.08824052  0.24103651  0.89938059     0.36000
N639        N  0.01623200  0.31487585  0.78296334    -0.44200
N640        N  0.09915596  0.22885774  0.92014106    -0.44200
C641        C  0.11748928  0.46625840  0.84975072    -0.00600
C642        C  0.12239389  0.46106699  0.88231820    -0.12500
C643        C  0.13171684  0.43417028  0.89368602     0.01600
C644        C  0.13485325  0.41119084  0.87262399    -0.00700
C645        C  0.12921441  0.41612546  0.84026093    -0.12500
C646        C  0.12139351  0.44333489  0.82864894     0.01500
H647        H  0.11955477  0.47832609  0.89902595     0.14500
H648        H  0.13211758  0.39881284  0.82361780     0.14500
C649        C  0.11758329  0.44699086  0.79497691     0.36100
C650        C  0.13749757  0.43055601  0.92703954     0.36000
N651        N  0.11480924  0.44996048  0.76794936    -0.44200
N652        N  0.14225606  0.42757459  0.95374731    -0.44200
C653        C  0.28732457  0.00500438  0.95918486    -0.00600
C654        C  0.27078662  0.48738504  0.98473792    -0.12500
C655        C  0.25776586  0.00373431  0.00743070     0.01600
C656        C  0.24610926  0.03136214  0.00106735    -0.00700
C657        C  0.25573414  0.04539708  0.97350521    -0.12500
C658        C  0.27581597  0.03273379  0.95289088     0.01500
H659        H  0.27842684  0.46584139  0.98953933     0.14500
H660        H  0.24715683  0.06636406  0.96757403     0.14500
C661        C  0.28370529  0.04870513  0.92502963     0.36100
C662        C  0.24048593  0.48173460  0.03093340     0.36000
N663        N  0.29007310  0.06141981  0.90264565    -0.44200
N664        N  0.23275493  0.46758800  0.05166042    -0.44200
C665        C  0.37247688  0.46400671  0.00112367    -0.00600
C666        C  0.35942149  0.48634237  0.01798539    -0.12500
C667        C  0.36087421  0.48704924  0.05101289     0.01600
C668        C  0.37640802  0.46570747  0.06728226    -0.00700
C669        C  0.38530207  0.44129004  0.05097716    -0.12500
C670        C  0.38391814  0.44041862  0.01812079     0.01500
H671        H  0.34846443  0.50350751  0.00538373     0.14500
H672        H  0.39689223  0.42455345  0.06366257     0.14500
C673        C  0.39632107  0.41591591  0.00283179     0.36100
C674        C  0.34838242  0.51092560  0.06748052     0.36000
N675        N  0.40623464  0.39597089  0.99112333    -0.44200
N676        N  0.33818436  0.52993736  0.08072059    -0.44200
C677        C  0.23899238  0.37125907  0.84632015    -0.00600
C678        C  0.26465834  0.35671776  0.85176870    -0.12500
C679        C  0.28945694  0.37202210  0.85671604     0.01600
C680        C  0.28864331  0.40199594  0.85360072    -0.00700
C681        C  0.26411181  0.41589476  0.84225657    -0.12500
C682        C  0.23900414  0.40052721  0.83832588     0.01500
H683        H  0.26437407  0.33401029  0.85752500     0.14500
H684        H  0.26390903  0.43899322  0.83943197     0.14500
C685        C  0.21313276  0.41578315  0.83011440     0.36100
C686        C  0.31344819  0.35692217  0.87056543     0.36000
N687        N  0.19261832  0.42824064  0.82316856    -0.44200
N688        N  0.33172740  0.34397002  0.88247840    -0.44200
C689        C  0.43693342  0.49994818  0.85986016    -0.00600
C690        C  0.44102686  0.50411951  0.82707057    -0.12500
C691        C  0.46769094  0.51172965  0.81475791     0.01600
C692        C  0.49339548  0.01319113  0.83027090    -0.00700
C693        C  0.48988173  0.00953320  0.86309698    -0.12500
C694        C  0.46333092  0.00294665  0.87610537     0.01500
H695        H  0.42325815  0.50143593  0.81080856     0.14500
H696        H  0.50790155  0.01267553  0.87892750     0.14500
C697        C  0.46148984  0.99967472  0.90996535     0.36100
C698        C  0.96990509  0.51593743  0.78114481     0.36000
N699        N  0.46015880  0.99715594  0.93713269    -0.44200
N700        N  0.97239722  0.51930965  0.75420313    -0.44200
C701        C  0.39310382  0.37369587  0.87475776    -0.00600
C702        C  0.38258533  0.36328673  0.84584963    -0.12500
C703        C  0.39198247  0.33714308  0.83336067     0.01600
C704        C  0.41286211  0.32064822  0.84968689    -0.00700
C705        C  0.42473246  0.33210318  0.87766889    -0.12500
C706        C  0.41531844  0.35845350  0.88998880     0.01500
H707        H  0.36650471  0.37564018  0.83297701     0.14500
H708        H  0.44131710  0.32026586  0.89030799     0.14500
C709        C  0.42990326  0.37015796  0.91702972     0.36100
C710        C  0.38035582  0.32830696  0.80329929     0.36000
N711        N  0.44235390  0.37959853  0.93821407    -0.44200
N712        N  0.37109172  0.32142794  0.77909152    -0.44200
C713        C  0.37997557  0.11902364  0.70798242    -0.00600
C714        C  0.40954565  0.11885449  0.71443445    -0.12500
C715        C  0.42224090  0.13818881  0.73602303     0.01600
C716        C  0.40543180  0.15869546  0.75219168    -0.00700
C717        C  0.37595589  0.15923705  0.74504714    -0.12500
C718        C  0.36334065  0.14009250  0.72337594     0.01500
H719        H  0.42291980  0.10322872  0.70282750     0.14500
H720        H  0.36250250  0.17511957  0.75612433     0.14500
C721        C  0.33334547  0.14364208  0.71634820     0.36100
C722        C  0.45278072  0.13696542  0.74011604     0.36000
N723        N  0.30936335  0.14674181  0.71057264    -0.44200
N724        N  0.47730048  0.13599960  0.74318049    -0.44200
C725        C  0.39935053  0.07019339  0.56101647    -0.00600
C726        C  0.41062009  0.04566558  0.54702376    -0.12500
C727        C  0.41326281  0.04394470  0.51425348     0.01600
C728        C  0.40545215  0.06769665  0.49488576    -0.00700
C729        C  0.39718851  0.09331312  0.50942191    -0.12500
C730        C  0.39395846  0.09467918  0.54214424     0.01500
H731        H  0.41451248  0.02669765  0.56138766     0.14500
H732        H  0.39233574  0.11212136  0.49514808     0.14500
C733        C  0.38366114  0.12103844  0.55560735     0.36100
C734        C  0.42333513  0.01717067  0.50152329     0.36000
N735        N  0.37560045  0.14247242  0.56583007    -0.44200
N736        N  0.43126165  0.99562220  0.49144156    -0.44200
C737        C  0.34028330  0.02742678  0.74560222    -0.00600
C738        C  0.31482646  0.51458562  0.75980866    -0.12500
C739        C  0.31204055  0.51211651  0.79252354     0.01600
C740        C  0.33685702  0.02148815  0.81182923    -0.00700
C741        C  0.36142342  0.03266981  0.79813041    -0.12500
C742        C  0.36356072  0.03534261  0.76533802     0.01500
H743        H  0.29668838  0.50971666  0.74474576     0.14500
H744        H  0.38008688  0.03654841  0.81281555     0.14500
C745        C  0.39029551  0.04549295  0.75303934     0.36100
C746        C  0.28535359  0.50235355  0.80531006     0.36000
N747        N  0.41189039  0.05343479  0.74348071    -0.44200
N748        N  0.26394834  0.49470472  0.81564225    -0.44200
C749        C  0.12258355  0.12434028  0.75008401    -0.00600
C750        C  0.10764221  0.13741366  0.72464527    -0.12500
C751        C  0.12050409  0.15770203  0.70425473     0.01600
C752        C  0.14948210  0.16575107  0.70844858    -0.00700
C753        C  0.16440933  0.15270241  0.73391448    -0.12500
C754        C  0.15153281  0.13253343  0.75439375     0.01500
H755        H  0.08563665  0.13155989  0.72029565     0.14500
H756        H  0.18644831  0.15848066  0.73821618     0.14500
C757        C  0.16888397  0.12077698  0.77972801     0.36100
C758        C  0.10317263  0.16967359  0.67905771     0.36000
N759        N  0.18283126  0.11139368  0.80003461    -0.44200
N760        N  0.08918468  0.17926866  0.65891069    -0.44200
C761        C  0.13439782  0.21503670  0.56374197    -0.00600
C762        C  0.14303389  0.19064574  0.54713221    -0.12500
C763        C  0.13884739  0.18877208  0.51457844     0.01600
C764        C  0.12551326  0.21164157  0.49824183    -0.00700
C765        C  0.11398150  0.23453783  0.51550467    -0.12500
C766        C  0.11797355  0.23614976  0.54819267     0.01500
H767        H  0.15550664  0.17439263  0.55916061     0.14500
H768        H  0.10204763  0.25133054  0.50344359     0.14500
C769        C  0.10654954  0.26045391  0.56484028     0.36100
C770        C  0.15025865  0.16411482  0.49850928     0.36000
N771        N  0.09709497  0.27973894  0.57827056    -0.44200
N772        N  0.15934760  0.14431269  0.48569306    -0.44200
C773        C  0.19431927  0.25484747  0.74778779    -0.00600
C774        C  0.17083273  0.24397363  0.76424358    -0.12500
C775        C  0.16892961  0.24674620  0.79688313     0.01600
C776        C  0.19062560  0.26104673  0.81343670    -0.00700
C777        C  0.21558295  0.26892937  0.79760704    -0.12500
C778        C  0.21764053  0.26595318  0.76490374     0.01500
H779        H  0.15354104  0.23378222  0.75149534     0.14500
H780        H  0.23221892  0.28017907  0.81036700     0.14500
C781        C  0.24288042  0.27645485  0.74952256     0.36100
C782        C  0.14316057  0.23744514  0.81212496     0.36000
N783        N  0.26321276  0.28486696  0.73741136    -0.44200
N784        N  0.12243350  0.22976181  0.82398442    -0.44200
C785        C  0.28922134  0.12226560  0.59926514    -0.00600
C786        C  0.26162476  0.11944865  0.58685280    -0.12500
C787        C  0.24251168  0.14211757  0.58930546     0.01600
C788        C  0.25210295  0.16782208  0.60240682    -0.00700
C789        C  0.28081530  0.17184323  0.60996037    -0.12500
C790        C  0.29963970  0.14910607  0.60851062     0.01500
H791        H  0.25384490  0.09858369  0.57984324     0.14500
H792        H  0.28777455  0.19158316  0.62076251     0.14500
C793        C  0.32808732  0.15269209  0.62133388     0.36100
C794        C  0.21281746  0.13733766  0.58217434     0.36000
N795        N  0.35066186  0.15546897  0.63209275    -0.44200
N796        N  0.18906295  0.13288962  0.57673410    -0.44200
C797        C  0.49405405  0.27591366  0.50249994    -0.00600
C798        C  0.99737761  0.24630559  0.50161674    -0.12500
C799        C  0.01673469  0.23253411  0.48124780     0.01600
C800        C  0.03287661  0.24856677  0.45903289    -0.00700
C801        C  0.02898411  0.27844775  0.45872836    -0.12500
C802        C  0.51561572  0.29212255  0.48750132     0.01500
H803        H  0.98509821  0.23341691  0.51784288     0.14500
H804        H  0.04136635  0.29138102  0.44264582     0.14500
C805        C  0.52042987  0.32173411  0.49536238     0.36100
C806        C  0.01932157  0.20180703  0.48407881     0.36000
N807        N  0.52464015  0.34535405  0.50189986    -0.44200
N808        N  0.02127891  0.17719779  0.48667834    -0.44200
C809        C  0.39929173  0.31992649  0.46399470    -0.00600
C810        C  0.41025624  0.29855311  0.44431972    -0.12500
C811        C  0.40430907  0.29873644  0.41198108     0.01600
C812        C  0.38643265  0.32022221  0.39909438    -0.00700
C813        C  0.37727030  0.34280600  0.41831894    -0.12500
C814        C  0.38381690  0.34301511  0.45056891     0.01500
H815        H  0.42337264  0.28150081  0.45428674     0.14500
H816        H  0.36331306  0.35924692  0.40850003     0.14500
C817        C  0.37295316  0.36618407  0.46951277     0.36100
C818        C  0.41505938  0.27545629  0.39315998     0.36000
N819        N  0.36437667  0.38479494  0.48469016    -0.44200
N820        N  0.42392525  0.25687585  0.37815355    -0.44200
C821        C  0.44161535  0.25709948  0.64822712    -0.00600
C822        C  0.46608667  0.26372157  0.66595121    -0.12500
C823        C  0.46621380  0.26117240  0.69880374     0.01600
C824        C  0.44109535  0.25305370  0.71441444    -0.00700
C825        C  0.41773159  0.24351178  0.69654154    -0.12500
C826        C  0.41817406  0.24467722  0.66352922     0.01500
H827        H  0.48432926  0.27308190  0.65424643     0.14500
H828        H  0.39936736  0.23456604  0.70840152     0.14500
C829        C  0.39389660  0.23424594  0.64596465     0.36100
C830        C  0.49215481  0.26747296  0.71591346     0.36000
N831        N  0.37460970  0.22533897  0.63200959    -0.44200
N832        N  0.51319258  0.27203005  0.72937805    -0.44200
C833        C  0.33859201  0.28319234  0.59936598    -0.00600
C834        C  0.32449763  0.29944041  0.62257672    -0.12500
C835        C  0.29780790  0.29127731  0.63438196     0.01600
C836        C  0.28496495  0.26595587  0.62373015    -0.00700
C837        C  0.29843533  0.25025150  0.59986347    -0.12500
C838        C  0.32495890  0.25843749  0.58776264     0.01500
H839        H  0.33428867  0.31879371  0.63145415     0.14500
H840        H  0.28786414  0.23177423  0.59003927     0.14500
C841        C  0.33790976  0.24044124  0.56424277     0.36100
C842        C  0.28375587  0.30951864  0.65682441     0.36000
N843        N  0.34820398  0.22587964  0.54546010    -0.44200
N844        N  0.27246562  0.32439450  0.67457259    -0.44200
C845        C  0.39045341  0.40867977  0.58432079    -0.00600
C846        C  0.37645677  0.41222048  0.61341752    -0.12500
C847        C  0.36964678  0.43944277  0.62489244     0.01600
C848        C  0.37605643  0.46389075  0.60680716    -0.00700
C849        C  0.38874933  0.46049239  0.57712473    -0.12500
C850        C  0.39636555  0.43333396  0.56596379     0.01500
H851        H  0.37187371  0.39370698  0.62808123     0.14500
H852        H  0.39339201  0.47927790  0.56288549     0.14500
C853        C  0.41087339  0.43163831  0.53610723     0.36100
C854        C  0.35563053  0.44175431  0.65500534     0.36000
N855        N  0.42269820  0.43040512  0.51228388    -0.44200
N856        N  0.34439025  0.44376699  0.67911147    -0.44200
C857        C  0.03690644  0.00033269  0.49658517    -0.00600
C858        C  0.02921027  0.02927161  0.50051903    -0.12500
C859        C  0.00926224  0.04322876  0.48036273     0.01600
C860        C  0.49563128  0.02849854  0.45553605    -0.00700
C861        C  0.49991234  0.99860120  0.45513237    -0.12500
C862        C  0.02604418  0.49114602  0.47030848     0.01500
H863        H  0.03901773  0.04135004  0.51947149     0.14500
H864        H  0.48664854  0.48917952  0.44296434     0.14500
C865        C  0.03349711  0.46206995  0.46236376     0.36100
C866        C  0.00296478  0.07288302  0.48680850     0.36000
N867        N  0.03945428  0.43880179  0.45580221    -0.44200
N868        N  0.99803860  0.09665977  0.49210247    -0.44200
C869        C  0.08651124  0.03163146  0.70686381    -0.00600
C870        C  0.06201826  0.02171384  0.69107344    -0.12500
C871        C  0.06234973  0.01649177  0.65861274     0.01600
C872        C  0.08738150  0.02144436  0.64138581    -0.00700
C873        C  0.10980352  0.53665924  0.65833153    -0.12500
C874        C  0.10910647  0.54118366  0.69093074     0.01500
H875        H  0.04285210  0.01705537  0.70424021     0.14500
H876        H  0.12925309  0.54101353  0.64551251     0.14500
C877        C  0.13360641  0.55466727  0.70526611     0.36100
C878        C  0.03726911  0.00477119  0.64360251     0.36000
N879        N  0.15338162  0.56550320  0.71638845    -0.44200
N880        N  0.01707145  0.99561232  0.63157540    -0.44200
C881        C  0.12769473  0.46515666  0.45797435    -0.00600
C882        C  0.11069478  0.48440627  0.44029073    -0.12500
C883        C  0.11116936  0.48438341  0.40724031     0.01600
C884        C  0.12949501  0.46552233  0.39138098    -0.00700
C885        C  0.14389504  0.44415951  0.40892205    -0.12500
C886        C  0.14324844  0.44390483  0.44201278     0.01500
H887        H  0.09476020  0.99542741  0.45239164     0.14500
H888        H  0.15845492  0.42983382  0.39697540     0.14500
C889        C  0.16051164  0.42315170  0.45901539     0.36100
C890        C  0.09141088  0.00209883  0.39036770     0.36000
N891        N  0.17432766  0.40658611  0.47276982    -0.44200
N892        N  0.07723625  0.01884207  0.37735577    -0.44200
C893        C  0.04191997  0.40624619  0.60612319    -0.00600
C894        C  0.01519632  0.41921294  0.60853858    -0.12500
C895        C  0.49174590  0.40230363  0.61300802     0.01600
C896        C  0.49407539  0.37233332  0.61110833    -0.00700
C897        C  0.02052573  0.35967588  0.61225956    -0.12500
C898        C  0.04489355  0.37657659  0.61148274     0.01500
H899        H  0.01308957  0.44222325  0.60592867     0.14500
H900        H  0.02247490  0.33652662  0.61212953     0.14500
C901        C  0.07232274  0.36278404  0.61451630     0.36100
C902        C  0.46471547  0.41675554  0.61555088     0.36000
N903        N  0.09391956  0.35113958  0.61813031    -0.44200
N904        N  0.44356877  0.42916403  0.61860269    -0.44200
C905        C  0.19431781  0.50009013  0.59866739    -0.00600
C906        C  0.21552778  0.50505655  0.57614306    -0.12500
C907        C  0.24184506  0.01412462  0.58379958     0.01600
C908        C  0.24949267  0.01646542  0.61626576    -0.00700
C909        C  0.22866679  0.01048307  0.63877340    -0.12500
C910        C  0.20210378  0.50272544  0.63117469     0.01500
H911        H  0.21026486  0.50306312  0.55123122     0.14500
H912        H  0.23406749  0.01234576  0.66367693     0.14500
C913        C  0.18200800  0.49776633  0.65621899     0.36100
C914        C  0.26175128  0.02087148  0.55908197     0.36000
N915        N  0.16608064  0.49355177  0.67640477    -0.44200
N916        N  0.27758812  0.02623668  0.53913676    -0.44200
C917        C  0.14649356  0.37530814  0.58257143    -0.00600
C918        C  0.15992720  0.37247312  0.61246951    -0.12500
C919        C  0.16713083  0.34555302  0.62511432     0.01600
C920        C  0.16167008  0.32079960  0.60747250    -0.00700
C921        C  0.15013265  0.32368020  0.57680375    -0.12500
C922        C  0.14175536  0.35038669  0.56460756     0.01500
H923        H  0.16378338  0.39125166  0.62675252     0.14500
H924        H  0.14705781  0.30480588  0.56247535     0.14500
C925        C  0.12758858  0.35126740  0.53415292     0.36100
C926        C  0.18106129  0.34394746  0.65563630     0.36000
N927        N  0.11591142  0.35184986  0.50993805    -0.44200
N928        N  0.19240767  0.34261178  0.68000534    -0.44200
O929        O  0.06691794  0.96100447  0.51481795    -0.82300
C930        C  0.16400613  0.99000860  0.58659302     0.97100
O931        O  0.15422064  0.99489179  0.55892151    -0.71400
O932        O  0.12161085  0.98529412  0.50590374    -0.75000
Al933      Al  0.11353677  0.99637686  0.54883574     1.49000
C934        C  0.12369204  0.96139883  0.49197448     0.92300
O935        O  0.11411699  0.90258875  0.55564321    -0.81200
O936        O  0.08879547  0.92289519  0.60839608    -0.74800
Al937      Al  0.09213217  0.93472979  0.53786790     1.90100
O938        O  0.14382883  0.92334912  0.58854178    -0.73800
O939        O  0.09166932  0.97738952  0.61790817    -0.73700
O940        O  0.14880172  0.97673172  0.60609482    -0.79300
O941        O  0.10603630  0.51704954  0.59085789    -0.77600
O942        O  0.10786949  0.96079162  0.56251670    -1.13700
O943        O  0.07543554  0.50684889  0.53737346    -0.72900
C944        C  0.06012049  0.98718251  0.51754486     0.97800
C945        C  0.13550012  0.90124002  0.57438207     0.94200
Al946      Al  0.11750633  0.95108890  0.60185564     1.55600
O947        O  0.12033262  0.93825719  0.50686981    -0.77500
C948        C  0.09379203  0.00391855  0.61388551     0.98400
C949        C  0.06555745  0.91965605  0.59393757     0.93300
O950        O  0.06198658  0.92897703  0.56620147    -0.82800
O951        O  0.46388048  0.81849057  0.51698209    -0.82300
C952        C  0.36780114  0.79079668  0.58858540     0.97100
O953        O  0.37799744  0.78495594  0.56176322    -0.71400
O954        O  0.40869759  0.79644639  0.50960358    -0.75000
Al955      Al  0.41809338  0.78371160  0.55192002     1.49000
C956        C  0.40569409  0.82107250  0.49701537     0.92300
O957        O  0.42151446  0.87806109  0.55966115    -0.81200
O958        O  0.44590939  0.85492118  0.61189723    -0.74800
Al959      Al  0.44077393  0.84491440  0.54157774     1.90100
O960        O  0.39034622  0.85886729  0.59134953    -0.73800
O961        O  0.43898220  0.80108604  0.62206995    -0.73700
O962        O  0.38235459  0.80511634  0.60797796    -0.79300
O963        O  0.42658989  0.76480890  0.59213813    -0.77600
O964        O  0.42442304  0.81904435  0.56599690    -1.13700
O965        O  0.45731795  0.77702156  0.53953891    -0.72900
C966        C  0.47050935  0.79225709  0.51956745     0.97800
C967        C  0.39995152  0.88063171  0.57734365     0.94200
Al968      Al  0.41508655  0.82894944  0.60501222     1.55600
O969        O  0.41129695  0.84352178  0.51200345    -0.77500
C970        C  0.43675992  0.77467888  0.61772010     0.98400
C971        C  0.46913846  0.85693123  0.59742195     0.93300
O972        O  0.47174881  0.84798091  0.56958111    -0.82800
O973        O  0.22176889  0.68185528  0.64030207    -0.82300
C974        C  0.17075797  0.78911907  0.61939433     0.97100
O975        O  0.18312917  0.77318132  0.60007743    -0.71400
O976        O  0.23568353  0.76377008  0.61968166    -0.75000
Al977      Al  0.20588931  0.74004995  0.60501624     1.49000
C978        C  0.25697764  0.75259307  0.63346342     0.92300
O979        O  0.21807699  0.74091280  0.69997238    -0.81200
O980        O  0.15047698  0.70043192  0.66841349    -0.74800
Al981      Al  0.21918502  0.71238417  0.66900312     1.90100
O982        O  0.17146567  0.74725611  0.69889350    -0.73800
O983        O  0.14183359  0.73211988  0.61528818    -0.73700
O984        O  0.16440764  0.77967688  0.64654872    -0.79300
O985        O  0.17833914  0.71690621  0.58772238    -0.77600
O986        O  0.19489354  0.73082640  0.64381474    -1.13700
O987        O  0.23103510  0.70917674  0.59937662    -0.72900
C988        C  0.23249384  0.68556493  0.61346056     0.97800
C989        C  0.19523389  0.74785791  0.71344415     0.94200
Al990      Al  0.15986254  0.73936404  0.65630754     1.55600
O991        O  0.25370107  0.73105861  0.65178149    -0.77500
C992        C  0.15201386  0.72031549  0.59084458     0.98400
C993        C  0.16431539  0.68515131  0.68823153     0.93300
O994        O  0.19080707  0.68973058  0.69192316    -0.82800
O995        O  0.31246358  0.59554645  0.64337629    -0.82300
C996        C  0.36601255  0.99480172  0.61608336     0.97100
O997        O  0.35590473  0.50935629  0.59756582    -0.71400
O998        O  0.30196429  0.51661118  0.61332845    -0.75000
Al999      Al  0.33191562  0.54200060  0.60300135     1.49000
C1000       C  0.28021557  0.52539486  0.62776494     0.92300
O1001       O  0.31913532  0.53194661  0.69680580    -0.81200
O1002       O  0.38433979  0.57977474  0.67062672    -0.74800
Al1003     Al  0.31640363  0.56312271  0.66876748     1.90100
O1004       O  0.36589126  0.53045131  0.69843556    -0.73800
O1005       O  0.39546996  0.55062075  0.61657096    -0.73700
O1006       O  0.37411913  0.50154577  0.64482073    -0.79300
O1007       O  0.35922837  0.56735990  0.58895327    -0.77600
O1008       O  0.34179155  0.54843454  0.64298550    -1.13700
O1009       O  0.30631688  0.57293804  0.59858598    -0.72900
C1010       C  0.30469842  0.59518451  0.61488514     0.97800
C1011       C  0.34207000  0.52733401  0.71183631     0.94200
Al1012     Al  0.37714825  0.54099436  0.65646802     1.55600
O1013       O  0.28297771  0.54453274  0.64890958    -0.77500
C1014       C  0.38547672  0.56376838  0.59252976     0.98400
C1015       C  0.36932503  0.59270501  0.69094896     0.93300
O1016       O  0.34340882  0.58552504  0.69407190    -0.82800
O1017       O  0.30974339  0.93108797  0.89325658    -0.82300
C1018       C  0.41088473  0.99056226  0.86784597     0.97100
O1019       O  0.39455126  0.97808585  0.84864217    -0.71400
O1020       O  0.39049109  0.92479222  0.86709390    -0.75000
Al1021     Al  0.36343313  0.95269268  0.85460569     1.49000
C1022       C  0.38292141  0.90274809  0.88197839     0.92300
O1023       O  0.37113581  0.94105951  0.94927192    -0.81200
O1024       O  0.31922219  0.50362780  0.91892178    -0.74800
Al1025     Al  0.34133761  0.93717175  0.91995535     1.90100
O1026       O  0.37169356  0.98798957  0.94947828    -0.73800
O1027       O  0.35041234  0.51405458  0.86641356    -0.73700
O1028       O  0.40251034  0.99558459  0.89573331    -0.79300
O1029       O  0.33670109  0.97902990  0.83953475    -0.77600
O1030       O  0.35593081  0.96273094  0.89395481    -1.13700
O1031       O  0.33444035  0.92486145  0.85014272    -0.72900
C1032       C  0.31208777  0.92154815  0.86569546     0.97800
C1033       C  0.37446202  0.96418808  0.96384427     0.94200
Al1034     Al  0.36254020  0.99841463  0.90628872     1.55600
O1035       O  0.36263290  0.90420527  0.90188806    -0.77500
C1036       C  0.34106943  0.00541118  0.84128166     0.98400
C1037       C  0.31014337  0.99086830  0.93883860     0.93300
O1038       O  0.31702007  0.96464334  0.94319065    -0.82800
O1039       O  0.21746992  0.85355121  0.89105781    -0.82300
C1040       C  0.11597392  0.79423154  0.87070728     0.97100
O1041       O  0.12927911  0.80967901  0.85141325    -0.71400
O1042       O  0.13632515  0.86249830  0.86992530    -0.75000
Al1043     Al  0.16127203  0.83420401  0.85491256     1.49000
C1044       C  0.14608954  0.88426989  0.88351347     0.92300
O1045       O  0.15994590  0.84352148  0.95083459    -0.81200
O1046       O  0.20679466  0.78095366  0.91643793    -0.74800
Al1047     Al  0.18793920  0.84810817  0.91937868     1.90100
O1048       O  0.15934542  0.79658831  0.94845182    -0.73800
O1049       O  0.17461817  0.77019824  0.86502135    -0.73700
O1050       O  0.12707571  0.78803170  0.89724251    -0.79300
O1051       O  0.18539729  0.80786568  0.83634536    -0.77600
O1052       O  0.17184179  0.82301391  0.89360140    -1.13700
O1053       O  0.19113695  0.86094196  0.84858718    -0.72900
C1054       C  0.21472576  0.86182617  0.86281653     0.97800
C1055       C  0.15704625  0.81939627  0.96418376     0.94200
Al1056     Al  0.16713870  0.78692408  0.90579623     1.55600
O1057       O  0.16704080  0.88162766  0.90265025    -0.77500
C1058       C  0.18443677  0.78127822  0.84006122     0.98400
C1059       C  0.22039539  0.79535853  0.93680857     0.93300
O1060       O  0.21302571  0.82111748  0.94150190    -0.82800
O1061       O  0.08152863  0.59311891  0.76633743    -0.82300
C1062       C  0.10949538  0.99627051  0.83677675     0.97100
O1063       O  0.11324247  0.50539924  0.81195153    -0.71400
O1064       O  0.10654558  0.53815364  0.75933340    -0.75000
Al1065     Al  0.11538302  0.54593012  0.80274342     1.49000
C1066       C  0.08374921  0.53586445  0.74338715     0.92300
O1067       O  0.02151839  0.54511230  0.80346745    -0.81200
O1068       O  0.04083108  0.57174401  0.85769167    -0.74800
Al1069     Al  0.05410713  0.56742486  0.78737482     1.90100
O1070       O  0.04117926  0.51658045  0.83903649    -0.73800
O1071       O  0.09446453  0.56852092  0.86976745    -0.73700
O1072       O  0.09426488  0.51068117  0.85856162    -0.79300
O1073       O  0.13195372  0.55324288  0.84428229    -0.77600
O1074       O  0.07933627  0.55193288  0.81405420    -1.13700
O1075       O  0.12177140  0.58547302  0.79184775    -0.72900
C1076       C  0.10755584  0.59964349  0.77134136     0.97800
C1077       C  0.01935909  0.52518379  0.82410505     0.94200
Al1078     Al  0.06876834  0.54269076  0.85294922     1.55600
O1079       O  0.05991155  0.53904771  0.75648714    -0.77500
C1080       C  0.12086335  0.56462523  0.86837331     0.98400
C1081       C  0.03529862  0.59406772  0.84215865     0.93300
O1082       O  0.04522051  0.59795661  0.81489795    -0.82800
O1083       O  0.44614301  0.68060923  0.78431655    -0.82300
C1084       C  0.42388268  0.79269234  0.83538190     0.97100
O1085       O  0.40672355  0.77666169  0.82007884    -0.71400
O1086       O  0.42310082  0.75542741  0.76332072    -0.75000
Al1087     Al  0.40929443  0.73831758  0.80148676     1.49000
C1088       C  0.44319542  0.74639064  0.74612803     0.92300
O1089       O  0.49939828  0.74160386  0.80180370    -0.81200
O1090       O  0.45720306  0.70522491  0.87125414    -0.74800
Al1091     Al  0.47049138  0.71267155  0.79544108     1.90100
O1092       O  0.49161123  0.74733454  0.85196320    -0.73800
O1093       O  0.41585657  0.74315971  0.87249388    -0.73700
O1094       O  0.44764095  0.78273119  0.84504817    -0.79300
O1095       O  0.39064898  0.72042698  0.83732900    -0.77600
O1096       O  0.44404557  0.73152153  0.81723370    -1.13700
O1097       O  0.40504139  0.70248037  0.77974048    -0.72900
C1098       C  0.42052432  0.68083751  0.77442213     0.97800
C1099       C  0.00714157  0.74951452  0.82996070     0.94200
Al1100     Al  0.45239412  0.74351664  0.85646308     1.55600
O1101       O  0.46218531  0.72991248  0.75675862    -0.77500
C1102       C  0.39484679  0.72825176  0.86548425     0.98400
C1103       C  0.47338113  0.68728469  0.85811431     0.93300
O1104       O  0.48321524  0.69130115  0.83075668    -0.82800
O1105       O  0.31812213  0.71914676  0.01426754    -0.82300
C1106       C  0.41137780  0.74327305  0.09115438     0.97100
O1107       O  0.40247510  0.74908185  0.06344482    -0.71400
O1108       O  0.37169010  0.74317297  0.00955488    -0.75000
Al1109     Al  0.36273108  0.75250587  0.05256182     1.49000
C1110       C  0.37445557  0.72000513  0.99450150     0.92300
O1111       O  0.36229634  0.65836627  0.05630656    -0.81200
O1112       O  0.33255250  0.67908748  0.10786603    -0.74800
Al1113     Al  0.34205996  0.69162810  0.03759234     1.90100
O1114       O  0.38915586  0.67768848  0.09298585    -0.73800
O1115       O  0.33693036  0.73270784  0.11857821    -0.73700
O1116       O  0.39529342  0.73091112  0.11070870    -0.79300
O1117       O  0.35426251  0.76966912  0.09339329    -0.77600
O1118       O  0.35616541  0.71665436  0.06451466    -1.13700
O1119       O  0.32364424  0.75932559  0.04002482    -0.72900
C1120       C  0.31046333  0.74488468  0.01923455     0.97800
C1121       C  0.38108874  0.65592154  0.07817338     0.94200
Al1122     Al  0.36298492  0.70612834  0.10422963     1.55600
O1123       O  0.37227410  0.69632670  0.00883376    -0.77500
C1124       C  0.34114294  0.75905140  0.11673772     0.98400
C1125       C  0.31053766  0.67697441  0.09086054     0.93300
O1126       O  0.31033832  0.68548862  0.06264228    -0.82800
O1127       O  0.06018649  0.85002454  0.13192372    -0.82300
C1128       C  0.11105783  0.74113923  0.12197286     0.97100
O1129       O  0.09963711  0.75650694  0.10085949    -0.71400
O1130       O  0.04633614  0.76780466  0.11580347    -0.75000
Al1131     Al  0.07731814  0.79039258  0.10201300     1.49000
C1132       C  0.02502629  0.77903367  0.12911433     0.92300
O1133       O  0.06141842  0.79392679  0.19655476    -0.81200
O1134       O  0.13070455  0.83079712  0.16751689    -0.74800
Al1135     Al  0.06183978  0.82072432  0.16316909     1.90100
O1136       O  0.10767706  0.78569802  0.19879540    -0.73800
O1137       O  0.14095092  0.79781538  0.11731453    -0.73700
O1138       O  0.11659623  0.75167915  0.14880860    -0.79300
O1139       O  0.10630580  0.81269678  0.08561591    -0.77600
O1140       O  0.08678218  0.80081826  0.14108062    -1.13700
O1141       O  0.05256117  0.82114380  0.09231711    -0.72900
C1142       C  0.05013216  0.84522232  0.10476803     0.97800
C1143       C  0.08348457  0.78654076  0.21182421     0.94200
Al1144     Al  0.12111758  0.79204552  0.15680592     1.55600
O1145       O  0.02834474  0.80133924  0.14583497    -0.77500
C1146       C  0.13234785  0.80938080  0.09173006     0.98400
C1147       C  0.11615096  0.84708757  0.18492714     0.93300
O1148       O  0.08937478  0.84388469  0.18585704    -0.82800
O1149       O  0.20770510  0.56667006  0.01551638    -0.82300
C1150       C  0.11572413  0.53794580  0.09263317     0.97100
O1151       O  0.12556827  0.53160676  0.06576956    -0.71400
O1152       O  0.15458370  0.54141369  0.01172991    -0.75000
Al1153     Al  0.16537263  0.53155934  0.05489951     1.49000
C1154       C  0.14929796  0.56525236  0.99816133     0.92300
O1155       O  0.16287752  0.62618722  0.05802585    -0.81200
O1156       O  0.19200116  0.60658363  0.10925002    -0.74800
Al1157     Al  0.18347540  0.59339758  0.03985001     1.90100
O1158       O  0.13508869  0.60604952  0.09287193    -0.73800
O1159       O  0.18892401  0.55295587  0.12219781    -0.73700
O1160       O  0.13054189  0.55269785  0.11159585    -0.79300
O1161       O  0.17573738  0.51489127  0.09587398    -0.77600
O1162       O  0.17022328  0.56773996  0.06676113    -1.13700
O1163       O  0.20448637  0.52676301  0.04232772    -0.72900
C1164       C  0.21638603  0.54115146  0.02070160     0.97800
C1165       C  0.14317217  0.62804686  0.07836918     0.94200
Al1166     Al  0.16228983  0.57842253  0.10583075     1.55600
O1167       O  0.15259379  0.58837123  0.01269146    -0.77500
C1168       C  0.18733596  0.52634362  0.11985777     0.98400
C1169       C  0.21352891  0.61103984  0.09229370     0.93300
O1170       O  0.21554091  0.60057693  0.06508829    -0.82800
O1171       O  0.46999307  0.93257431  0.13833531    -0.82300
C1172       C  0.41496263  0.54200624  0.12139763     0.97100
O1173       O  0.42898297  0.52668550  0.10288547    -0.71400
O1174       O  0.48157575  0.51463085  0.12044018    -0.75000
Al1175     Al  0.45561859  0.99115646  0.10293396     1.49000
C1176       C  0.00266189  0.50188135  0.13390296     0.92300
O1177       O  0.47130994  0.99248759  0.19671445    -0.81200
O1178       O  0.40121293  0.95386370  0.16890529    -0.74800
Al1179     Al  0.47006260  0.96342050  0.16644092     1.90100
O1180       O  0.41725404  0.50000622  0.20098010    -0.73800
O1181       O  0.39149712  0.98512041  0.11618504    -0.73700
O1182       O  0.40835824  0.53246410  0.14846891    -0.79300
O1183       O  0.42653028  0.96930419  0.08671018    -0.77600
O1184       O  0.44552289  0.98256597  0.14212370    -1.13700
O1185       O  0.47912751  0.95862211  0.09643952    -0.72900
C1186       C  0.47833879  0.93472501  0.11024313     0.97800
C1187       C  0.44165456  0.50040516  0.21421568     0.94200
Al1188     Al  0.41124976  0.99232175  0.15603423     1.55600
O1189       O  0.00518620  0.97971789  0.14688742    -0.77500
C1190       C  0.40041914  0.97283361  0.09147723     0.98400
C1191       C  0.41509654  0.93840056  0.18845059     0.93300
O1192       O  0.44179241  0.94220020  0.19120451    -0.82800
O1193       O  0.47216468  0.60346086  0.38726113    -0.82300
C1194       C  0.36886895  0.54411163  0.37278491     0.97100
O1195       O  0.38124389  0.56000525  0.35317527    -0.71400
O1196       O  0.38977525  0.61395932  0.37031934    -0.75000
Al1197     Al  0.41356054  0.58436914  0.35488856     1.49000
C1198       C  0.40057859  0.63561394  0.38339651     0.92300
O1199       O  0.41652198  0.59496503  0.45007733    -0.81200
O1200       O  0.46076750  0.53097465  0.41588890    -0.74800
Al1201     Al  0.44333758  0.59866229  0.41740224     1.90100
O1202       O  0.41436473  0.54789681  0.44924897    -0.73800
O1203       O  0.42729950  0.52000632  0.36592394    -0.73700
O1204       O  0.38051798  0.53831640  0.39915886    -0.79300
O1205       O  0.43629720  0.55737700  0.33592950    -0.77600
O1206       O  0.42560817  0.57342648  0.39317471    -1.13700
O1207       O  0.44345344  0.61056082  0.34664705    -0.72900
C1208       C  0.46755010  0.61257922  0.35960331     0.97800
C1209       C  0.41289941  0.57126418  0.46411192     0.94200
Al1210     Al  0.42092117  0.53740255  0.40644719     1.55600
O1211       O  0.42228841  0.63249186  0.40138182    -0.77500
C1212       C  0.43623951  0.53083297  0.34045841     0.98400
C1213       C  0.47541767  0.54579958  0.43492046     0.93300
O1214       O  0.46870600  0.57177679  0.43889904    -0.82800
O1215       O  0.05880545  0.68258262  0.38950442    -0.82300
C1216       C  0.16157409  0.74029208  0.36854746     0.97100
O1217       O  0.14647306  0.72667615  0.34912230    -0.71400
O1218       O  0.14031802  0.67341704  0.36760389    -0.75000
Al1219     Al  0.11456677  0.70212188  0.35341528     1.49000
C1220       C  0.13128055  0.65146567  0.38165236     0.92300
O1221       O  0.11864470  0.68984329  0.44803221    -0.81200
O1222       O  0.07183898  0.75455563  0.41766667    -0.74800
Al1223     Al  0.08956098  0.68678347  0.41754801     1.90100
O1224       O  0.12051822  0.73696448  0.44802542    -0.73800
O1225       O  0.10200422  0.76586414  0.36464676    -0.73700
O1226       O  0.15144339  0.74655820  0.39534328    -0.79300
O1227       O  0.08959606  0.72881668  0.33601753    -0.77600
O1228       O  0.10531668  0.71246840  0.39239960    -1.13700
O1229       O  0.08463055  0.67539362  0.34736976    -0.72900
C1230       C  0.06112008  0.67468432  0.36128940     0.97800
C1231       C  0.12328962  0.71306177  0.46218715     0.94200
Al1232     Al  0.11115563  0.74811288  0.40533124     1.55600
O1233       O  0.11005764  0.65370343  0.40003490    -0.77500
C1234       C  0.09108122  0.75533325  0.33975646     0.98400
C1235       C  0.05814168  0.73919118  0.43713283     0.93300
O1236       O  0.06534285  0.71318688  0.44077458    -0.82800
O1237       O  0.33292525  0.84626398  0.26794700    -0.82300
C1238       C  0.36391410  0.74956326  0.34042761     0.97100
O1239       O  0.36894981  0.75992785  0.31325934    -0.71400
O1240       O  0.36035077  0.79235803  0.26069589    -0.75000
Al1241     Al  0.36897034  0.80062706  0.30408496     1.49000
C1242       C  0.33733382  0.78863474  0.24555174     0.92300
O1243       O  0.27554340  0.79519016  0.30533661    -0.81200
O1244       O  0.29330413  0.82218598  0.35956609    -0.74800
Al1245     Al  0.30683082  0.81916735  0.28940111     1.90100
O1246       O  0.29636932  0.76725307  0.34076837    -0.73800
O1247       O  0.34710909  0.82195000  0.37153118    -0.73700
O1248       O  0.35001698  0.76418884  0.36002797    -0.79300
O1249       O  0.38508261  0.80914034  0.34519297    -0.77600
O1250       O  0.33278465  0.80479060  0.31578027    -1.13700
O1251       O  0.37339478  0.84032779  0.29335836    -0.72900
C1252       C  0.35868061  0.85386712  0.27286320     0.97800
C1253       C  0.27431997  0.77484566  0.32553748     0.94200
Al1254     Al  0.32277578  0.79477716  0.35467467     1.55600
O1255       O  0.31370693  0.79104152  0.25912778    -0.77500
C1256       C  0.37367658  0.82020921  0.36926315     0.98400
C1257       C  0.28670329  0.84432175  0.34421143     0.93300
O1258       O  0.29668640  0.84910419  0.31712987    -0.82800
O1259       O  0.19282965  0.93090375  0.28019687    -0.82300
C1260       C  0.17515093  0.54239088  0.33656619     0.97100
O1261       O  0.15784949  0.52662840  0.32141525    -0.71400
O1262       O  0.17587718  0.50733053  0.26508561    -0.75000
Al1263     Al  0.15754165  0.98811790  0.30111998     1.49000
C1264       C  0.19678164  0.49931208  0.24844953     0.92300
O1265       O  0.24890973  0.98765848  0.30375159    -0.81200
O1266       O  0.20405850  0.95213326  0.37023507    -0.74800
Al1267     Al  0.21814961  0.96112821  0.29451289     1.90100
O1268       O  0.23932765  0.99391491  0.35312627    -0.73800
O1269       O  0.16276785  0.99028435  0.37192165    -0.73700
O1270       O  0.19901054  0.53247779  0.34576186    -0.79300
O1271       O  0.13878098  0.96799719  0.33539315    -0.77600
O1272       O  0.19205250  0.97996665  0.31680672    -1.13700
O1273       O  0.15277881  0.95439932  0.27695709    -0.72900
C1274       C  0.16722071  0.93250027  0.27059849     0.97800
C1275       C  0.25991877  0.49626875  0.33291477     0.94200
Al1276     Al  0.20001438  0.99062067  0.35655673     1.55600
O1277       O  0.21145429  0.98161472  0.25716975    -0.77500
C1278       C  0.14280017  0.97421303  0.36408038     0.98400
C1279       C  0.21903773  0.93364443  0.35637258     0.93300
O1280       O  0.22820931  0.93721580  0.32863295    -0.82800
C1281       C  0.26531371  0.86336210  0.35719871    -0.00600
C1282       C  0.27374324  0.88458023  0.37840065    -0.12500
C1283       C  0.25481079  0.90662573  0.38584938     0.01600
C1284       C  0.22757920  0.90713467  0.37167588    -0.00700
C1285       C  0.21751195  0.88279782  0.35618501    -0.12500
C1286       C  0.23656570  0.86136471  0.34758171     0.01500
H1287       H  0.29565499  0.88533991  0.38673390     0.14500
H1288       H  0.19638229  0.88321923  0.34549025     0.14500
C1289       C  0.22674398  0.83972538  0.32590794     0.36100
C1290       C  0.26523653  0.93104134  0.40307848     0.36000
N1291       N  0.21828738  0.82298267  0.30817414    -0.44200
N1292       N  0.27347891  0.95075714  0.41671820    -0.44200
C1293       C  0.24625038  0.76356836  0.33594363    -0.00600
C1294       C  0.23968581  0.76499298  0.36832618    -0.12500
C1295       C  0.21248421  0.75795895  0.37964210     0.01600
C1296       C  0.19102312  0.74872742  0.35842501    -0.00700
C1297       C  0.19801044  0.74674098  0.32601572    -0.12500
C1298       C  0.22511802  0.75416293  0.31476787     0.01500
H1299       H  0.25571652  0.77255250  0.38486791     0.14500
H1300       H  0.18211764  0.73960054  0.30910394     0.14500
C1301       C  0.23103078  0.75138344  0.28153319     0.36100
C1302       C  0.20740452  0.76041653  0.41309922     0.36000
N1303       N  0.23597512  0.74902542  0.25494181    -0.44200
N1304       N  0.20336361  0.76246312  0.43992488    -0.44200
C1305       C  0.16515843  0.57082621  0.34775761    -0.00600
C1306       C  0.13776752  0.57234724  0.36063850    -0.12500
C1307       C  0.12704276  0.59769075  0.37358335     0.01600
C1308       C  0.14362776  0.62290281  0.37322048    -0.00700
C1309       C  0.17123990  0.62135427  0.36027231    -0.12500
C1310       C  0.18219270  0.59557715  0.34803710     0.01500
H1311       H  0.12471556  0.55334375  0.36097004     0.14500
H1312       H  0.18421359  0.64046676  0.35928689     0.14500
C1313       C  0.21036249  0.59535936  0.33465183     0.36100
C1314       C  0.09849630  0.59709499  0.38598302     0.36000
N1315       N  0.23291321  0.59517415  0.32382691    -0.44200
N1316       N  0.07564185  0.59632370  0.39596274    -0.44200
C1317       C  0.48936663  0.62946014  0.34467295    -0.00600
C1318       C  0.48634627  0.65912973  0.34744798    -0.12500
C1319       C  0.00985935  0.67572133  0.34752670     0.01600
C1320       C  0.03660355  0.66213068  0.34592763    -0.00700
C1321       C  0.03866795  0.63326559  0.33787674    -0.12500
C1322       C  0.01436821  0.61641211  0.33820533     0.01500
H1323       H  0.46572796  0.66837003  0.35300680     0.14500
H1324       H  0.05944854  0.62314441  0.33602945     0.14500
C1325       C  0.01773205  0.58577319  0.33617640     0.36100
C1326       C  0.00724809  0.70587950  0.35434618     0.36000
N1327       N  0.02129271  0.56130119  0.33477662    -0.44200
N1328       N  0.00521512  0.73000842  0.35993541    -0.44200
C1329       C  0.39042354  0.66484979  0.37351502    -0.00600
C1330       C  0.38422968  0.66980855  0.34123923    -0.12500
C1331       C  0.37659035  0.69716248  0.32966020     0.01600
C1332       C  0.37428066  0.72044395  0.35059835    -0.00700
C1333       C  0.38043553  0.71545388  0.38291287    -0.12500
C1334       C  0.38882511  0.68825033  0.39432866     0.01500
H1335       H  0.38591881  0.65224805  0.32473245     0.14500
H1336       H  0.37879273  0.73299452  0.39945485     0.14500
C1337       C  0.39473916  0.68480154  0.42766107     0.36100
C1338       C  0.37044083  0.70044402  0.29634046     0.36000
N1339       N  0.39936957  0.68219919  0.45443756    -0.44200
N1340       N  0.36555363  0.70304265  0.26961394    -0.44200
C1341       C  0.28878382  0.50739830  0.34196659    -0.00600
C1342       C  0.29294063  0.51611678  0.37371632    -0.12500
C1343       C  0.31877018  0.52742886  0.38449991     0.01600
C1344       C  0.34125742  0.53121293  0.36327259    -0.00700
C1345       C  0.33755054  0.52224071  0.33173235    -0.12500
C1346       C  0.31198751  0.50971846  0.32120137     0.01500
H1347       H  0.27586118  0.51417631  0.39063450     0.14500
H1348       H  0.35503255  0.52438663  0.31535761     0.14500
C1349       C  0.31076717  0.49857273  0.28953559     0.36100
C1350       C  0.32115193  0.53584838  0.41721054     0.36000
N1351       N  0.31021326  0.48924963  0.26427889    -0.44200
N1352       N  0.32293648  0.54247860  0.44345345    -0.44200
C1353       C  0.37250395  0.87719121  0.25275827    -0.00600
C1354       C  0.35890437  0.88700507  0.22475801    -0.12500
C1355       C  0.37217118  0.90635843  0.20356917     0.01600
C1356       C  0.40005291  0.91679458  0.20967497    -0.00700
C1357       C  0.41349639  0.90729330  0.23785354    -0.12500
C1358       C  0.40025073  0.88807161  0.25909926     0.01500
H1359       H  0.33791690  0.87895924  0.21882260     0.14500
H1360       H  0.43457009  0.91520780  0.24366873     0.14500
C1361       C  0.41590409  0.88013556  0.28739858     0.36100
C1362       C  0.35685931  0.91436254  0.17511137     0.36000
N1363       N  0.42847871  0.87376806  0.31006314    -0.44200
N1364       N  0.34467692  0.92080296  0.15221930    -0.44200
C1365       C  0.44360647  0.50471800  0.24824026    -0.00600
C1366       C  0.43032461  0.98723214  0.26360495    -0.12500
C1367       C  0.42419268  0.49452125  0.30014812     0.01600
C1368       C  0.44407891  0.51351197  0.31337354    -0.00700
C1369       C  0.46597905  0.52441854  0.29457678    -0.12500
C1370       C  0.46590041  0.52030488  0.26211319     0.01500
H1371       H  0.41479113  0.97385649  0.25173937     0.14500
H1372       H  0.48125803  0.53908091  0.30479367     0.14500
C1373       C  0.48729789  0.53444653  0.24346194     0.36100
C1374       C  0.40667077  0.97598233  0.31330076     0.36000
N1375       N  0.50449693  0.54584892  0.22865642    -0.44200
N1376       N  0.38880580  0.96426497  0.32678525    -0.44200
C1377       C  0.19665756  0.50518849  0.21461069    -0.00600
C1378       C  0.17406535  0.99238200  0.19420244    -0.12500
C1379       C  0.17338256  0.49535828  0.16446042     0.01600
C1380       C  0.19493677  0.51030601  0.14856029    -0.00700
C1381       C  0.21897289  0.51958884  0.16577160    -0.12500
C1382       C  0.22024562  0.51655843  0.19867777     0.01500
H1383       H  0.15819920  0.97834050  0.20444804     0.14500
H1384       H  0.23568775  0.53121411  0.15372947     0.14500
C1385       C  0.24511842  0.52642210  0.21564946     0.36100
C1386       C  0.15580890  0.97937345  0.14228567     0.36000
N1387       N  0.26510518  0.53420732  0.22924379    -0.44200
N1388       N  0.14043247  0.96521299  0.12782762    -0.44200
C1389       C  0.03218936  0.51095258  0.12554147    -0.00600
C1390       C  0.04946903  0.49200897  0.10838897    -0.12500
C1391       C  0.07609710  0.50051557  0.09643284     0.01600
C1392       C  0.08669331  0.52824798  0.10270228    -0.00700
C1393       C  0.06947906  0.54702909  0.12024019    -0.12500
C1394       C  0.04228523  0.53892409  0.13085820     0.01500
H1395       H  0.05094178  0.97115546  0.10378588     0.14500
H1396       H  0.07707240  0.56845442  0.12512147     0.14500
C1397       C  0.02513638  0.55972327  0.14717441     0.36100
C1398       C  0.09988039  0.98356030  0.07616074     0.36000
N1399       N  0.51154538  0.57719164  0.16052629    -0.44200
N1400       N  0.11417409  0.96775687  0.06245530    -0.44200
C1401       C  0.13018836  0.86911888  0.20601067    -0.00600
C1402       C  0.11285824  0.88892307  0.22192677    -0.12500
C1403       C  0.12415855  0.90865272  0.24365507     0.01600
C1404       C  0.15394133  0.90954130  0.25015767    -0.00700
C1405       C  0.17131358  0.88944904  0.23466638    -0.12500
C1406       C  0.15987545  0.86943867  0.21307746     0.01500
H1407       H  0.09003429  0.88889809  0.21767050     0.14500
H1408       H  0.19409981  0.88951144  0.23913267     0.14500
C1409       C  0.17923303  0.84904877  0.19928721     0.36100
C1410       C  0.10419580  0.92726564  0.25937438     0.36000
N1411       N  0.19477359  0.83263259  0.18835726    -0.44200
N1412       N  0.08816560  0.94211910  0.27198954    -0.44200
C1413       C  0.08384378  0.77269208  0.31183627    -0.00600
C1414       C  0.05992193  0.76434701  0.29389001    -0.12500
C1415       C  0.05874229  0.76913287  0.26122415     0.01600
C1416       C  0.08196662  0.78230428  0.24623466    -0.00700
C1417       C  0.10433274  0.79331400  0.26471625    -0.12500
C1418       C  0.10535351  0.78882441  0.29731628     0.01500
H1419       H  0.04346096  0.75164351  0.30493526     0.14500
H1420       H  0.12160815  0.80474737  0.25348753     0.14500
C1421       C  0.13031347  0.79811368  0.31456467     0.36100
C1422       C  0.03476288  0.75817741  0.24349562     0.36000
N1423       N  0.15034601  0.80557366  0.32829594    -0.44200
N1424       N  0.01552404  0.74937592  0.22935269    -0.44200
C1425       C  0.02976088  0.86517282  0.09133990    -0.00600
C1426       C  0.00133217  0.85980325  0.09882746    -0.12500
C1427       C  0.48158041  0.88219921  0.10313773     0.01600
C1428       C  0.49088451  0.90988793  0.09531881    -0.00700
C1429       C  0.01830825  0.91431694  0.07990376    -0.12500
C1430       C  0.03782528  0.89184101  0.07915766     0.01500
H1431       H  0.99508432  0.83875554  0.10719704     0.14500
H1432       H  0.02515937  0.93566070  0.07329233     0.14500
C1433       C  0.06613243  0.89704586  0.06767970     0.36100
C1434       C  0.45378226  0.87695887  0.11630010     0.36000
N1435       N  0.08848709  0.90171847  0.05770596    -0.44200
N1436       N  0.43160775  0.87263454  0.12699576    -0.44200
C1437       C  0.13357140  0.65635795  0.08994055    -0.00600
C1438       C  0.14942304  0.66917792  0.11438382    -0.12500
C1439       C  0.14197620  0.69616499  0.12630107     0.01600
C1440       C  0.11808187  0.71093065  0.11370338    -0.00700
C1441       C  0.10140755  0.69727746  0.09033852    -0.12500
C1442       C  0.10865712  0.67005266  0.07891562    -0.03300
H1443       H  0.16805689  0.65820190  0.12391912     0.14500
H1444       H  0.08251414  0.70792474  0.08094208     0.14500
C1445       C  0.08977811  0.65620269  0.05679747     0.36100
C1446       C  0.15989183  0.70857622  0.15044282     0.36000
N1447       N  0.07426523  0.64493258  0.03956350    -0.44200
N1448       N  0.17421232  0.71849811  0.16985440    -0.44200
C1449       C  0.33750766  0.78414258  0.21107188    -0.00600
C1450       C  0.31317926  0.77232475  0.19686065    -0.12500
C1451       C  0.31200009  0.76764282  0.16441574     0.01600
C1452       C  0.33535829  0.77524017  0.14542457    -0.00700
C1453       C  0.35835876  0.78979950  0.15895029    -0.12500
C1454       C  0.35990323  0.79395351  0.19159536     0.01500
H1455       H  0.29540935  0.76560701  0.21128972     0.14500
H1456       H  0.37648254  0.79537239  0.14447748     0.14500
C1457       C  0.38507104  0.80766318  0.20412114     0.36100
C1458       C  0.28762972  0.75274770  0.15156024     0.36000
N1459       N  0.40543322  0.81853214  0.21379559    -0.44200
N1460       N  0.26822564  0.74054136  0.14145111    -0.44200
C1461       C  0.28463769  0.66378165  0.10271789    -0.00600
C1462       C  0.25899385  0.67569564  0.09176130    -0.12500
C1463       C  0.23445627  0.65940315  0.09076233     0.01600
C1464       C  0.23526838  0.63106653  0.10234041    -0.00700
C1465       C  0.25986680  0.62046300  0.11739411    -0.12500
C1466       C  0.28476236  0.63676872  0.11776961     0.01500
H1467       H  0.25888622  0.69674825  0.08071557     0.14500
H1468       H  0.26031774  0.59862215  0.12629987     0.14500
C1469       C  0.31045911  0.62417559  0.13080715     0.36100
C1470       C  0.21020232  0.67132130  0.07393742     0.36000
N1471       N  0.33079900  0.61382740  0.14162820    -0.44200
N1472       N  0.19158295  0.68182754  0.05988577    -0.44200
C1473       C  0.44056023  0.75134939  0.10150455    -0.00600
C1474       C  0.44421854  0.76692156  0.12953355    -0.12500
C1475       C  0.47140542  0.77560489  0.13981502     0.01600
C1476       C  0.49589309  0.76786224  0.12240444    -0.00700
C1477       C  0.49207902  0.75106546  0.09511947    -0.12500
C1478       C  0.46484813  0.74307648  0.08450969     0.01500
H1479       H  0.42564598  0.77295613  0.14306669     0.14500
H1480       H  0.51039252  0.74481186  0.08129367     0.14500
C1481       C  0.46236231  0.72579307  0.05647933     0.36100
C1482       C  0.47332479  0.79263748  0.16808857     0.36000
N1483       N  0.46024714  0.71187431  0.03407721    -0.44200
N1484       N  0.97434008  0.80980797  0.18769003    -0.44200
C1485       C  0.40626870  0.57108081  0.11012971    -0.00600
C1486       C  0.40348683  0.59330684  0.13183990    -0.12500
C1487       C  0.39653284  0.62118540  0.12182286     0.01600
C1488       C  0.39126946  0.62724639  0.08924368    -0.00700
C1489       C  0.39362373  0.60490347  0.06760581    -0.12500
C1490       C  0.40151255  0.57725000  0.07750532     0.01500
H1491       H  0.40715993  0.58897966  0.15679978     0.14500
H1492       H  0.38947119  0.60911678  0.04271104     0.14500
C1493       C  0.40424644  0.55569935  0.05339645     0.36100
C1494       C  0.39373583  0.64263204  0.14603311     0.36000
N1495       N  0.40671846  0.53861521  0.03393057    -0.44200
N1496       N  0.39152192  0.65948615  0.16578549    -0.44200
C1497       C  0.37716675  0.72044823  0.89244640    -0.00600
C1498       C  0.36537619  0.74373228  0.90847637    -0.12500
C1499       C  0.36478552  0.74433698  0.94148778     0.01600
C1500       C  0.37545910  0.72065856  0.95935075    -0.00700
C1501       C  0.38389792  0.69597726  0.94301674    -0.12500
C1502       C  0.38478516  0.69574902  0.90990276     0.01500
H1503       H  0.35984220  0.76303685  0.89523108     0.14500
H1504       H  0.39083907  0.67710180  0.95613392     0.14500
C1505       C  0.39607972  0.67085225  0.89435856     0.36100
C1506       C  0.35381066  0.77003231  0.95591986     0.36000
N1507       N  0.40491109  0.65072011  0.88199577    -0.44200
N1508       N  0.34509219  0.79077097  0.96719378    -0.44200
C1509       C  0.14357274  0.56664976  0.96388189    -0.00600
C1510       C  0.15531033  0.54524631  0.94468316    -0.12500
C1511       C  0.15243767  0.54664287  0.91179387     0.01600
C1512       C  0.13673661  0.56925253  0.89781393    -0.00700
C1513       C  0.12737285  0.59190397  0.91667202    -0.12500
C1514       C  0.13064757  0.59087918  0.94939311     0.01500
H1515       H  0.16695326  0.52748275  0.95532986     0.14500
H1516       H  0.11532685  0.60938509  0.90594633     0.14500
C1517       C  0.11946316  0.61457916  0.96725168     0.36100
C1518       C  0.16457987  0.52396187  0.89314292     0.36000
N1519       N  0.11071378  0.63383747  0.98126811    -0.44200
N1520       N  0.17465528  0.50597233  0.87819217    -0.44200
C1521       C  0.48054538  0.65980800  0.87233864    -0.00600
C1522       C  0.46933678  0.63699375  0.85502719    -0.12500
C1523       C  0.98664711  0.61520579  0.84464547     0.01600
C1524       C  0.01516898  0.61448809  0.85524160    -0.00700
C1525       C  0.02439375  0.63368068  0.87837142    -0.12500
C1526       C  0.00673676  0.65645281  0.88708849     0.01500
H1527       H  0.44858869  0.63934791  0.84370854     0.14500
H1528       H  0.04598624  0.63220662  0.88763918     0.14500
C1529       C  0.01790412  0.67819335  0.90773281     0.36100
C1530       C  0.47631397  0.59553692  0.82163411     0.36000
N1531       N  0.02698041  0.69538815  0.92454124    -0.44200
N1532       N  0.46700879  0.58068732  0.80241932    -0.44200
C1533       C  0.28689473  0.75817405  0.99904687    -0.00600
C1534       C  0.27350385  0.74149667  0.97556293    -0.12500
C1535       C  0.25238597  0.75288515  0.95495741     0.01600
C1536       C  0.24403786  0.78206111  0.95687665    -0.00700
C1537       C  0.25743371  0.79873753  0.98035778    -0.12500
C1538       C  0.27829400  0.78726866  0.00121698     0.01500
H1539       H  0.27951631  0.71919642  0.97314444     0.14500
H1540       H  0.25136141  0.82101480  0.98284321     0.14500
C1541       C  0.29024974  0.80616049  0.02464178     0.36100
C1542       C  0.23949181  0.73371430  0.93244665     0.36000
N1543       N  0.29969110  0.82139985  0.04342074    -0.44200
N1544       N  0.22911083  0.71824501  0.91452518    -0.44200
C1545       C  0.15503548  0.81730886  0.99910274    -0.00600
C1546       C  0.15257167  0.84250084  0.01701042    -0.12500
C1547       C  0.15082471  0.84106773  0.04999728     0.01600
C1548       C  0.15125488  0.81431460  0.06531770    -0.00700
C1549       C  0.15756931  0.78977084  0.04820265    -0.12500
C1550       C  0.15899337  0.79080086  0.01538006     0.01500
H1551       H  0.15135555  0.86318173  0.00536018     0.14500
H1552       H  0.15777175  0.76913396  0.06012641     0.14500
C1553       C  0.16330125  0.76381714  0.99958226     0.36100
C1554       C  0.14774801  0.86700058  0.06802047     0.36000
N1555       N  0.16665261  0.74210748  0.98711514    -0.44200
N1556       N  0.14585085  0.88759482  0.08290967    -0.44200
C1557       C  0.03623319  0.75958171  0.83691612    -0.00600
C1558       C  0.05026778  0.74713687  0.86309084    -0.12500
C1559       C  0.07555657  0.75841772  0.87527486     0.01600
C1560       C  0.08782656  0.78262957  0.86070597    -0.00700
C1561       C  0.07380055  0.79492602  0.83414056    -0.12500
C1562       C  0.04807767  0.78380952  0.82244097     0.01500
H1563       H  0.04091230  0.72869079  0.87459428     0.14500
H1564       H  0.08267139  0.81366592  0.82271534     0.14500
C1565       C  0.03326303  0.79874100  0.79719759     0.36100
C1566       C  0.08829190  0.74440091  0.90251301     0.36000
N1567       N  0.02122057  0.81092054  0.77721530    -0.44200
N1568       N  0.09832533  0.73314799  0.92441946    -0.44200
C1569       C  0.11981015  0.96758899  0.84770313    -0.00600
C1570       C  0.12731798  0.96404200  0.87986180    -0.12500
C1571       C  0.13584286  0.93734013  0.89227872     0.01600
C1572       C  0.13570956  0.91301348  0.87279019    -0.00700
C1573       C  0.12787795  0.91651010  0.84068815    -0.12500
C1574       C  0.12059846  0.94345236  0.82794486     0.01500
H1575       H  0.12683606  0.98239121  0.89540699     0.14500
H1576       H  0.12840820  0.89821570  0.82507351     0.14500
C1577       C  0.11372288  0.94554047  0.79468415     0.36100
C1578       C  0.14425606  0.93550894  0.92512110     0.36000
N1579       N  0.10844609  0.94708468  0.76795438    -0.44200
N1580       N  0.15113872  0.93412645  0.95142154    -0.44200
C1581       C  0.28206916  0.50265010  0.95887844    -0.00600
C1582       C  0.27784195  0.99108107  0.98684236    -0.12500
C1583       C  0.25015407  0.49935558  0.00508925     0.01600
C1584       C  0.23960586  0.52769504  0.00028957    -0.00700
C1585       C  0.25073108  0.54295845  0.97427948    -0.12500
C1586       C  0.27151577  0.53099339  0.95397290     0.01500
H1587       H  0.28643717  0.97012836  0.99279752     0.14500
H1588       H  0.24308316  0.56451340  0.96955495     0.14500
C1589       C  0.28147976  0.54858558  0.92823540     0.36100
C1590       C  0.24986309  0.98774334  0.03524406     0.36000
N1591       N  0.28948075  0.56275089  0.90764954    -0.44200
N1592       N  0.24345439  0.97498648  0.05757753    -0.44200
C1593       C  0.37703397  0.96358270  0.99867821    -0.00600
C1594       C  0.36544310  0.98664807  0.01564398    -0.12500
C1595       C  0.36731524  0.98745593  0.04861704     0.01600
C1596       C  0.38187111  0.96542585  0.06486445    -0.00700
C1597       C  0.38947983  0.94054204  0.04852234    -0.12500
C1598       C  0.38740405  0.93945975  0.01564645     0.01500
H1599       H  0.35529965  0.00435899  0.00313767     0.14500
H1600       H  0.40037576  0.92331481  0.06114524     0.14500
C1601       C  0.39784573  0.91405287  0.00026347     0.36100
C1602       C  0.35648899  0.01220588  0.06495792     0.36000
N1603       N  0.40612166  0.89342655  0.98839232    -0.44200
N1604       N  0.34766691  0.03197645  0.07805458    -0.44200
C1605       C  0.23949311  0.87377656  0.84769355    -0.00600
C1606       C  0.26504699  0.85921658  0.85367214    -0.12500
C1607       C  0.29002204  0.87444371  0.85746211     0.01600
C1608       C  0.28946779  0.90426828  0.85283079    -0.00700
C1609       C  0.26493522  0.91796433  0.84108122    -0.12500
C1610       C  0.23964177  0.90266182  0.83822609     0.01500
H1611       H  0.26462628  0.83677676  0.86048139     0.14500
H1612       H  0.26490481  0.94086097  0.83710744     0.14500
C1613       C  0.21374985  0.91766532  0.82943481     0.36100
C1614       C  0.31404751  0.85956602  0.87154289     0.36000
N1615       N  0.19307015  0.92965828  0.82207077    -0.44200
N1616       N  0.33233905  0.84675687  0.88362400    -0.44200
C1617       C  0.43945011  0.99932555  0.85608193    -0.00600
C1618       C  0.44311753  0.00269450  0.82311617    -0.12500
C1619       C  0.46966152  0.00967226  0.81020938     0.01600
C1620       C  0.49127488  0.51489517  0.83516983    -0.00700
C1621       C  0.48729931  0.51053480  0.86787530    -0.12500
C1622       C  0.46057015  0.50338412  0.88030353     0.01500
H1623       H  0.42508889  0.99999818  0.80719847     0.14500
H1624       H  0.50512582  0.51333753  0.88405195     0.14500
C1625       C  0.45828776  0.49894716  0.91397643     0.36100
C1626       C  0.97156643  0.01338943  0.77607117     0.36000
N1627       N  0.45645381  0.49538484  0.94096793    -0.44200
N1628       N  0.97372548  0.01587287  0.74897712    -0.44200
C1629       C  0.39428020  0.87475629  0.87096250    -0.00600
C1630       C  0.38195578  0.86302971  0.84362703    -0.12500
C1631       C  0.39147092  0.83694594  0.83111692     0.01600
C1632       C  0.41487579  0.82226052  0.84524015    -0.00700
C1633       C  0.42835732  0.83510086  0.87158175    -0.12500
C1634       C  0.41830342  0.86102709  0.88440061     0.01500
H1635       H  0.36423316  0.87417657  0.83220329     0.14500
H1636       H  0.44647412  0.82449611  0.88284293     0.14500
C1637       C  0.43327508  0.87345759  0.91081260     0.36100
C1638       C  0.37657012  0.82590147  0.80384922     0.36000
N1639       N  0.44553563  0.88351597  0.93178709    -0.44200
N1640       N  0.36441064  0.81708872  0.78210825    -0.44200
C1641       C  0.38231228  0.61535939  0.71246083    -0.00600
C1642       C  0.41219428  0.61707726  0.71647377    -0.12500
C1643       C  0.42508582  0.63708794  0.73721764     0.01600
C1644       C  0.40821630  0.65652409  0.75482994    -0.00700
C1645       C  0.37839898  0.65465332  0.75089941    -0.12500
C1646       C  0.36552446  0.63463364  0.73039940     0.01500
H1647       H  0.42571200  0.60257928  0.70341369     0.14500
H1648       H  0.36482164  0.66929806  0.76370358     0.14500
C1649       C  0.33483746  0.63519065  0.72776246     0.36100
C1650       C  0.45580118  0.63777011  0.73895122     0.36000
N1651       N  0.31023047  0.63575043  0.72573204    -0.44200
N1652       N  0.48043471  0.63835819  0.74030012    -0.44200
C1653       C  0.40258902  0.57036664  0.56477061    -0.00600
C1654       C  0.41534325  0.54693200  0.55009976    -0.12500
C1655       C  0.41867187  0.54656049  0.51734705     0.01600
C1656       C  0.40993627  0.57058787  0.49883056    -0.00700
C1657       C  0.40037427  0.59525962  0.51416654    -0.12500
C1658       C  0.39647919  0.59525507  0.54680374     0.01500
H1659       H  0.41976077  0.52762498  0.56372201     0.14500
H1660       H  0.39467493  0.61420707  0.50050602     0.14500
C1661       C  0.38409215  0.62035622  0.56092395     0.36100
C1662       C  0.43021240  0.52075517  0.50371756     0.36000
N1663       N  0.37418918  0.64077109  0.57164188    -0.44200
N1664       N  0.43925281  0.49989249  0.49305215    -0.44200
C1665       C  0.34088135  0.52265208  0.74637736    -0.00600
C1666       C  0.31470616  0.01895561  0.75981118    -0.12500
C1667       C  0.31290211  0.01586241  0.79258979     0.01600
C1668       C  0.33546789  0.51799175  0.81242040    -0.00700
C1669       C  0.36068210  0.52827071  0.79936129    -0.12500
C1670       C  0.36384317  0.53018395  0.76668602     0.01500
H1671       H  0.29627233  0.01391901  0.74527630     0.14500
H1672       H  0.37894279  0.53221537  0.81462547     0.14500
C1673       C  0.39109798  0.53959743  0.75509491     0.36100
C1674       C  0.28679604  0.00529309  0.80604033     0.36000
N1675       N  0.41297541  0.54708671  0.74589189    -0.44200
N1676       N  0.26589997  0.99692063  0.81694311    -0.44200
C1677       C  0.12193912  0.62263331  0.75128130    -0.00600
C1678       C  0.10831361  0.63290715  0.72349156    -0.12500
C1679       C  0.12158171  0.65244252  0.70253960     0.01600
C1680       C  0.14945475  0.66283814  0.70879564    -0.00700
C1681       C  0.16307664  0.65258716  0.73660132    -0.12500
C1682       C  0.14990181  0.63294200  0.75746931     0.01500
H1683       H  0.08723034  0.62511702  0.71753647     0.14500
H1684       H  0.18425922  0.66020639  0.74242208     0.14500
C1685       C  0.16583355  0.62394031  0.78518848     0.36100
C1686       C  0.10621432  0.66063510  0.67418547     0.36000
N1687       N  0.17864508  0.61668631  0.80736940    -0.44200
N1688       N  0.09388084  0.66706432  0.65138868    -0.44200
C1689       C  0.13492353  0.71364885  0.56273779    -0.00600
C1690       C  0.14385227  0.68976638  0.54533256    -0.12500
C1691       C  0.14087540  0.68920320  0.51251236     0.01600
C1692       C  0.12792145  0.71258167  0.49667062    -0.00700
C1693       C  0.11613841  0.73496759  0.51451316    -0.12500
C1694       C  0.11934187  0.73554598  0.54737554     0.01500
H1695       H  0.15605154  0.67296880  0.55707686     0.14500
H1696       H  0.10471476  0.75229777  0.50273599     0.14500
C1697       C  0.10843710  0.75987572  0.56439299     0.36100
C1698       C  0.15351723  0.66560277  0.49568775     0.36000
N1699       N  0.09950429  0.77928074  0.57803841    -0.44200
N1700       N  0.16379668  0.64673666  0.48227903    -0.44200
C1701       C  0.19541869  0.75319025  0.74763043    -0.00600
C1702       C  0.17210218  0.74320199  0.76502142    -0.12500
C1703       C  0.17014743  0.74833424  0.79731770     0.01600
C1704       C  0.19156919  0.76421916  0.81250100    -0.00700
C1705       C  0.21613830  0.77180830  0.79587868    -0.12500
C1706       C  0.21844954  0.76602285  0.76368577     0.01500
H1707       H  0.15500898  0.73182886  0.75321940     0.14500
H1708       H  0.23260247  0.78416844  0.80759811     0.14500
C1709       C  0.24398770  0.77477524  0.74773394     0.36100
C1710       C  0.14469856  0.73944635  0.81348423     0.36000
N1711       N  0.26482125  0.78154342  0.73546815    -0.44200
N1712       N  0.12426944  0.73208217  0.82618845    -0.44200
C1713       C  0.29049289  0.62003023  0.60206351    -0.00600
C1714       C  0.26305622  0.61593400  0.58954979    -0.12500
C1715       C  0.24330550  0.63813721  0.59057479     0.01600
C1716       C  0.25218974  0.66469412  0.60204956    -0.00700
C1717       C  0.28071542  0.66981094  0.60960687    -0.12500
C1718       C  0.30001234  0.64745224  0.61032254     0.01500
H1719       H  0.25592254  0.59459355  0.58341365     0.14500
H1720       H  0.28705711  0.69029223  0.61922582     0.14500
C1721       C  0.32786560  0.65235618  0.62412456     0.36100
C1722       C  0.21373717  0.63236816  0.58357317     0.36000
N1723       N  0.34989102  0.65639766  0.63574781    -0.44200
N1724       N  0.19003928  0.62746477  0.57826163    -0.44200
C1725       C  0.49303511  0.77923000  0.49816980    -0.00600
C1726       C  0.99359615  0.74806689  0.49321847    -0.12500
C1727       C  0.01345199  0.73533175  0.47242371     0.01600
C1728       C  0.03476546  0.75200254  0.45745629    -0.00700
C1729       C  0.03491532  0.78153326  0.46396385    -0.12500
C1730       C  0.50330553  0.79316828  0.47051142     0.01500
H1731       H  0.97737709  0.73480583  0.50380077     0.14500
H1732       H  0.05111436  0.79480402  0.45335208     0.14500
C1733       C  0.49211213  0.82052714  0.46011222     0.36100
C1734       C  0.01063926  0.70514568  0.46609760     0.36000
N1735       N  0.48305967  0.84231702  0.45141579    -0.44200
N1736       N  0.00823557  0.68097689  0.46096201    -0.44200
C1737       C  0.39965659  0.82363587  0.46316275    -0.00600
C1738       C  0.41299961  0.80406269  0.44304863    -0.12500
C1739       C  0.40875349  0.80565671  0.41047104     0.01600
C1740       C  0.39002607  0.82653031  0.39788214    -0.00700
C1741       C  0.37921010  0.84797301  0.41763526    -0.12500
C1742       C  0.38403270  0.84680826  0.45017063     0.01500
H1743       H  0.42664056  0.78734309  0.45283424     0.14500
H1744       H  0.36491127  0.86418262  0.40794379     0.14500
C1745       C  0.37125833  0.86855265  0.46970532     0.36100
C1746       C  0.42189785  0.78417477  0.39092963     0.36000
N1747       N  0.36116708  0.88602326  0.48537366    -0.44200
N1748       N  0.43249767  0.76708637  0.37517153    -0.44200
C1749       C  0.44216183  0.75687068  0.64569472    -0.00600
C1750       C  0.46736248  0.76213596  0.66273420    -0.12500
C1751       C  0.46832119  0.75881197  0.69557568     0.01600
C1752       C  0.44320628  0.75173004  0.71192866    -0.00700
C1753       C  0.41892709  0.74382325  0.69461921    -0.12500
C1754       C  0.41859667  0.74539722  0.66163618     0.01500
H1755       H  0.48566531  0.77087712  0.65057868     0.14500
H1756       H  0.40035607  0.73583317  0.70689678     0.14500
C1757       C  0.39337420  0.73636345  0.64480356     0.36100
C1758       C  0.49505717  0.76344052  0.71185762     0.36000
N1759       N  0.37327338  0.72843458  0.63156176    -0.44200
N1760       N  0.51671684  0.76664007  0.72460110    -0.44200
C1761       C  0.33891312  0.78085071  0.59874658    -0.00600
C1762       C  0.32567283  0.79505512  0.62408023    -0.12500
C1763       C  0.29938655  0.78604924  0.63614278     0.01600
C1764       C  0.28585551  0.76185891  0.62354274    -0.00700
C1765       C  0.29860558  0.74790790  0.59786429    -0.12500
C1766       C  0.32489520  0.75690208  0.58560222     0.01500
H1767       H  0.33574205  0.81366281  0.63440990     0.14500
H1768       H  0.28768864  0.73016463  0.58684324     0.14500
C1769       C  0.33727640  0.74045624  0.56039104     0.36100
C1770       C  0.28623459  0.80280295  0.66050826     0.36000
N1771       N  0.34714351  0.72706405  0.54031410    -0.44200
N1772       N  0.27582657  0.81686172  0.67964623    -0.44200
C1773       C  0.38817009  0.90957403  0.58485334    -0.00600
C1774       C  0.37456773  0.91362829  0.61409483    -0.12500
C1775       C  0.36735917  0.94111379  0.62481064     0.01600
C1776       C  0.37361676  0.96532552  0.60618372    -0.00700
C1777       C  0.38570532  0.96127549  0.57627842    -0.12500
C1778       C  0.39306891  0.93387354  0.56555570     0.01500
H1779       H  0.37032063  0.89533464  0.62921797     0.14500
H1780       H  0.38975078  0.97971611  0.56128689     0.14500
C1781       C  0.40548377  0.93139612  0.53461476     0.36100
C1782       C  0.35250161  0.94394386  0.65435235     0.36000
N1783       N  0.41538288  0.92936235  0.50978980    -0.44200
N1784       N  0.34033853  0.94645403  0.67783566    -0.44200
C1785       C  0.03888917  0.50550938  0.49635366    -0.00600
C1786       C  0.03085270  0.53421334  0.50112592    -0.12500
C1787       C  0.01065399  0.54828889  0.48145187     0.01600
C1788       C  0.49906216  0.53221560  0.45465646    -0.00700
C1789       C  0.50099893  0.50217821  0.45697630    -0.12500
C1790       C  0.02358378  0.98548164  0.47119802     0.01500
H1791       H  0.04044900  0.54594745  0.52047423     0.14500
H1792       H  0.48738974  0.98574857  0.43897010     0.14500
C1793       C  0.03012071  0.95591237  0.46457555     0.36100
C1794       C  0.00385651  0.57765172  0.48883155     0.36000
N1795       N  0.03528974  0.93222207  0.45909758    -0.44200
N1796       N  0.99847401  0.60119132  0.49480744    -0.44200
C1797       C  0.08507560  0.53233877  0.70859660    -0.00600
C1798       C  0.06099360  0.52232360  0.69216758    -0.12500
C1799       C  0.06183583  0.51791614  0.65951396     0.01600
C1800       C  0.08706459  0.52345495  0.64281305    -0.00700
C1801       C  0.11067449  0.03432893  0.65626185    -0.12500
C1802       C  0.11062270  0.03924271  0.68878139     0.01500
H1803       H  0.04178053  0.51701191  0.70493965     0.14500
H1804       H  0.13006451  0.03793567  0.64305686     0.14500
C1805       C  0.13592331  0.05149783  0.70275482     0.36100
C1806       C  0.03699942  0.50666420  0.64360120     0.36000
N1807       N  0.15629285  0.06118642  0.71387188    -0.44200
N1808       N  0.01701360  0.49797524  0.63072450    -0.44200
C1809       C  0.12521039  0.96075707  0.45713851    -0.00600
C1810       C  0.10815347  0.98031737  0.43996280    -0.12500
C1811       C  0.10850182  0.98094759  0.40692738     0.01600
C1812       C  0.12671693  0.96236892  0.39051171    -0.00700
C1813       C  0.14094595  0.94050474  0.40748619    -0.12500
C1814       C  0.14041367  0.93959833  0.44061027     0.01500
H1815       H  0.09708189  0.49958921  0.45231402     0.14500
H1816       H  0.15534942  0.92631404  0.39513159     0.14500
C1817       C  0.15761319  0.91841644  0.45701994     0.36100
C1818       C  0.09390772  0.50494875  0.38998068     0.36000
N1819       N  0.17144335  0.90149843  0.47021655    -0.44200
N1820       N  0.07962533  0.52115266  0.37628165    -0.44200
C1821       C  0.04275107  0.90348859  0.60838877    -0.00600
C1822       C  0.01664305  0.91739621  0.61224080    -0.12500
C1823       C  0.49146962  0.90206247  0.61467564     0.01600
C1824       C  0.49291643  0.87213603  0.61136709    -0.00700
C1825       C  0.01948289  0.85768403  0.61201909    -0.12500
C1826       C  0.04450837  0.87348058  0.61091081     0.01500
H1827       H  0.01551526  0.94053415  0.61067144     0.14500
H1828       H  0.02044784  0.83454059  0.61014801     0.14500
C1829       C  0.07113104  0.85820021  0.60845526     0.36100
C1830       C  0.46472312  0.91729116  0.61614858     0.36000
N1831       N  0.09205434  0.84516004  0.60679676    -0.44200
N1832       N  0.44366025  0.93012545  0.61774572    -0.44200
C1833       C  0.19321947  0.99962435  0.59718359    -0.00600
C1834       C  0.21404691  0.00611263  0.57468585    -0.12500
C1835       C  0.24356498  0.51233587  0.58515328     0.01600
C1836       C  0.25115724  0.51538584  0.61756097    -0.00700
C1837       C  0.22996596  0.51070572  0.64009958    -0.12500
C1838       C  0.20109635  0.00174241  0.62975911     0.01500
H1839       H  0.20872408  0.00463775  0.54974219     0.14500
H1840       H  0.23525768  0.51312309  0.66496405     0.14500
C1841       C  0.18148652  0.99528308  0.65486722     0.36100
C1842       C  0.26369917  0.51781973  0.56030030     0.36000
N1843       N  0.16598920  0.98985476  0.67511791    -0.44200
N1844       N  0.27961542  0.52220521  0.54014819    -0.44200
C1845       C  0.14816209  0.87317534  0.58377393    -0.00600
C1846       C  0.15846259  0.86983455  0.61505378    -0.12500
C1847       C  0.16567128  0.84278974  0.62747230     0.01600
C1848       C  0.16311816  0.81840896  0.60833552    -0.00700
C1849       C  0.15467404  0.82201629  0.57649656    -0.12500
C1850       C  0.14682882  0.84888577  0.56426586     0.01500
H1851       H  0.15974249  0.88826009  0.63042531     0.14500
H1852       H  0.15352463  0.80355129  0.56116983     0.14500
C1853       C  0.13706009  0.85075430  0.53185295     0.36100
C1854       C  0.17640576  0.84082088  0.65949646     0.36000
N1855       N  0.12909931  0.85219763  0.50592069    -0.44200
N1856       N  0.18516633  0.83940304  0.68511964    -0.44200
O1857       O  0.56837898  0.46492630  0.51547194    -0.82300
C1858       C  0.66520999  0.49123930  0.58859816     0.97100
O1859       O  0.65546092  0.49694329  0.56113269    -0.71400
O1860       O  0.62334210  0.48882331  0.50779822    -0.75000
Al1861     Al  0.61493227  0.49920518  0.55077822     1.49000
C1862       C  0.62541624  0.46510088  0.49356519     0.92300
O1863       O  0.61403820  0.40522024  0.55555657    -0.81200
O1864       O  0.58881644  0.42500434  0.60839607    -0.74800
Al1865     Al  0.59285405  0.43801537  0.53828667     1.90100
O1866       O  0.64397053  0.42506575  0.58880380    -0.73800
O1867       O  0.59253741  0.47919314  0.61939519    -0.73700
O1868       O  0.64974696  0.47793532  0.60783549    -0.79300
O1869       O  0.60518787  0.01464109  0.58929001    -0.77600
O1870       O  0.60866645  0.46346271  0.56364677    -1.13700
O1871       O  0.57402647  0.00280024  0.53701698    -0.72900
C1872       C  0.56183947  0.49110365  0.51857745     0.97800
C1873       C  0.63529885  0.40324750  0.57435382     0.94200
Al1874     Al  0.61801874  0.45287118  0.60276255     1.55600
O1875       O  0.62153091  0.44178786  0.50795318    -0.77500
C1876       C  0.59462106  0.50577427  0.61577958     0.98400
C1877       C  0.56564598  0.42214056  0.59367202     0.93300
O1878       O  0.56229220  0.43210071  0.56614007    -0.82800
O1879       O  0.96446305  0.31584406  0.51837861    -0.82300
C1880       C  0.86788661  0.29137869  0.58945055     0.97100
O1881       O  0.87799278  0.28492752  0.56277424    -0.71400
O1882       O  0.90907102  0.29420772  0.51071693    -0.75000
Al1883     Al  0.91799123  0.28240014  0.55337018     1.49000
C1884       C  0.90621195  0.31843993  0.49725080     0.92300
O1885       O  0.92265472  0.37673543  0.55886283    -0.81200
O1886       O  0.94695659  0.35422843  0.61182968    -0.74800
Al1887     Al  0.94167342  0.34304404  0.54163126     1.90100
O1888       O  0.89151369  0.35821351  0.59105916    -0.73800
O1889       O  0.93937453  0.30064739  0.62278529    -0.73700
O1890       O  0.88276834  0.30528103  0.60888273    -0.79300
O1891       O  0.92576497  0.26408920  0.59400066    -0.77600
O1892       O  0.92494335  0.31786364  0.56659269    -1.13700
O1893       O  0.95710216  0.27482520  0.54170966    -0.72900
C1894       C  0.97088526  0.28968263  0.52191682     0.97800
C1895       C  0.90133078  0.37971606  0.57682611     0.94200
Al1896     Al  0.91584229  0.32849025  0.60538334     1.55600
O1897       O  0.91236283  0.34125735  0.51141158    -0.77500
C1898       C  0.93636421  0.27422502  0.61920442     0.98400
C1899       C  0.97018122  0.35606778  0.59732964     0.93300
O1900       O  0.97275872  0.34645284  0.56976946    -0.82800
O1901       O  0.72278015  0.18430480  0.64072181    -0.82300
C1902       C  0.67087874  0.29115640  0.61902221     0.97100
O1903       O  0.68341408  0.27528497  0.59978625    -0.71400
O1904       O  0.73568775  0.26647587  0.62044623    -0.75000
Al1905     Al  0.70647248  0.24240110  0.60516795     1.49000
C1906       C  0.75692723  0.25548403  0.63446872     0.92300
O1907       O  0.71766526  0.24334272  0.70025536    -0.81200
O1908       O  0.65076310  0.20263776  0.66777235    -0.74800
Al1909     Al  0.71939626  0.21484573  0.66931421     1.90100
O1910       O  0.67108519  0.24932576  0.69868569    -0.73800
O1911       O  0.64256433  0.23423632  0.61490676    -0.73700
O1912       O  0.66462761  0.28180769  0.64624163    -0.79300
O1913       O  0.67920941  0.21901699  0.58746139    -0.77600
O1914       O  0.69520648  0.23308228  0.64381676    -1.13700
O1915       O  0.73205474  0.21171370  0.59987380    -0.72900
C1916       C  0.73354165  0.18806313  0.61390924     0.97800
C1917       C  0.69463054  0.24967419  0.71365116     0.94200
Al1918     Al  0.66008244  0.24154427  0.65594215     1.55600
O1919       O  0.75376900  0.23384639  0.65262586    -0.77500
C1920       C  0.65284060  0.22229394  0.59062694     0.98400
C1921       C  0.66451084  0.18725033  0.68753538     0.93300
O1922       O  0.69094469  0.19191629  0.69158435    -0.82800
O1923       O  0.81043205  0.09687740  0.63973256    -0.82300
C1924       C  0.86839982  0.49325744  0.61786427     0.97100
O1925       O  0.85387095  0.00983950  0.59623840    -0.71400
O1926       O  0.80009622  0.01775153  0.61185645    -0.75000
Al1927     Al  0.82998691  0.04277936  0.60065024     1.49000
C1928       C  0.77848390  0.02674562  0.62634247     0.92300
O1929       O  0.81808273  0.03517000  0.69545854    -0.81200
O1930       O  0.88260639  0.08241264  0.66613124    -0.74800
Al1931     Al  0.81479685  0.06536377  0.66604360     1.90100
O1932       O  0.86484476  0.03411984  0.69649845    -0.73800
O1933       O  0.89358004  0.05132641  0.61333386    -0.73700
O1934       O  0.87243683  0.00315544  0.64357337    -0.79300
O1935       O  0.85734817  0.06777754  0.58558537    -0.77600
O1936       O  0.84003438  0.05011211  0.64041866    -1.13700
O1937       O  0.80438974  0.07377934  0.59529107    -0.72900
C1938       C  0.80312405  0.09631469  0.61113457     0.97800
C1939       C  0.84122118  0.03140344  0.71044001     0.94200
Al1940     Al  0.87552948  0.04312267  0.65377075     1.55600
O1941       O  0.78135530  0.04608503  0.64721907    -0.77500
C1942       C  0.88357523  0.06386564  0.58892727     0.98400
C1943       C  0.86762516  0.09597549  0.68598946     0.93300
O1944       O  0.84183443  0.08873695  0.68991088    -0.82800
O1945       O  0.80730695  0.42845710  0.89396958    -0.82300
C1946       C  0.90806840  0.49012167  0.87125095     0.97100
O1947       O  0.89258736  0.47682427  0.85184431    -0.71400
O1948       O  0.88904309  0.42347776  0.87102270    -0.75000
Al1949     Al  0.86179430  0.45070120  0.85721073     1.49000
C1950       C  0.88118738  0.40129308  0.88549135     0.92300
O1951       O  0.86681196  0.43995894  0.95204112    -0.81200
O1952       O  0.82312763  0.00583657  0.91847145    -0.74800
Al1953     Al  0.83800400  0.43526527  0.92176014     1.90100
O1954       O  0.86674231  0.48696427  0.95168732    -0.73800
O1955       O  0.85322675  0.01640220  0.86498032    -0.73700
O1956       O  0.89884342  0.49510885  0.89884192    -0.79300
O1957       O  0.83483562  0.47620690  0.84105405    -0.77600
O1958       O  0.85292940  0.46093677  0.89611845    -1.13700
O1959       O  0.83354639  0.42220670  0.85201226    -0.72900
C1960       C  0.81068365  0.41880242  0.86659341     0.97800
C1961       C  0.86962913  0.46331989  0.96631761     0.94200
Al1962     Al  0.85839748  0.49688990  0.90826725     1.55600
O1963       O  0.86035950  0.40254848  0.90472592    -0.77500
C1964       C  0.83848438  0.50268765  0.84271806     0.98400
C1965       C  0.80520699  0.48836012  0.93920081     0.93300
O1966       O  0.81253512  0.46231737  0.94387214    -0.82800
O1967       O  0.71754200  0.35018843  0.88856336    -0.82300
C1968       C  0.61431667  0.29305931  0.87107782     0.97100
O1969       O  0.62818491  0.30726990  0.85113611    -0.71400
O1970       O  0.63630902  0.36051652  0.86792432    -0.75000
Al1971     Al  0.66065766  0.33127938  0.85391147     1.49000
C1972       C  0.64613492  0.38216290  0.88175380     0.92300
O1973       O  0.66062107  0.34302273  0.94927056    -0.81200
O1974       O  0.70469099  0.27790937  0.91672746    -0.74800
Al1975     Al  0.68820731  0.34598096  0.91749870     1.90100
O1976       O  0.65834978  0.29605044  0.94949010    -0.73800
O1977       O  0.67195682  0.26720089  0.86583833    -0.73700
O1978       O  0.62509439  0.28760681  0.89801695    -0.79300
O1979       O  0.68435573  0.30401770  0.83657330    -0.77600
O1980       O  0.67108810  0.32078593  0.89290586    -1.13700
O1981       O  0.69081580  0.35747190  0.84646494    -0.72900
C1982       C  0.71454858  0.35840315  0.86033701     0.97800
C1983       C  0.65717734  0.31970552  0.96397434     0.94200
Al1984     Al  0.66524705  0.28515092  0.90640347     1.55600
O1985       O  0.66746207  0.37953531  0.90042449    -0.77500
C1986       C  0.68266041  0.27754436  0.84089714     0.98400
C1987       C  0.71919030  0.29244544  0.93616110     0.93300
O1988       O  0.71298685  0.31868663  0.93982255    -0.82800
O1989       O  0.58247345  0.09365552  0.76408122    -0.82300
C1990       C  0.60774652  0.49512262  0.83917241     0.97100
O1991       O  0.61573161  0.00640089  0.81007975    -0.71400
O1992       O  0.60835517  0.03853971  0.75759594    -0.75000
Al1993     Al  0.61672251  0.04699871  0.80102671     1.49000
C1994       C  0.58562291  0.03576351  0.74155356     0.92300
O1995       O  0.52296517  0.04471149  0.79989479    -0.81200
O1996       O  0.54012832  0.06967174  0.85421662    -0.74800
Al1997     Al  0.55536419  0.06757921  0.78481981     1.90100
O1998       O  0.54342655  0.01488043  0.83351731    -0.73800
O1999       O  0.59337546  0.06780823  0.86852843    -0.73700
O2000       O  0.59551925  0.01089986  0.85603441    -0.79300
O2001       O  0.63205312  0.05538165  0.84307809    -0.77600
O2002       O  0.58050538  0.05213516  0.81161778    -1.13700
O2003       O  0.62245112  0.08649095  0.79002529    -0.72900
C2004       C  0.60837680  0.10038541  0.76925303     0.97800
C2005       C  0.52140864  0.02367296  0.81914468     0.94200
Al2006     Al  0.56919517  0.04167757  0.84980971     1.55600
O2007       O  0.56168108  0.03952106  0.75413361    -0.77500
C2008       C  0.62001812  0.06593705  0.86719584     0.98400
C2009       C  0.53539789  0.09272694  0.83968680     0.93300
O2010       O  0.54611433  0.09760845  0.81295837    -0.82800
O2011       O  0.94300379  0.18079284  0.78328773    -0.82300
C2012       C  0.92106760  0.29107000  0.83870247     0.97100
O2013       O  0.90389075  0.27575174  0.82261656    -0.71400
O2014       O  0.92075489  0.25688838  0.76520251    -0.75000
Al2015     Al  0.90656297  0.23829145  0.80221339     1.49000
C2016       C  0.94052333  0.24772783  0.74769163     0.92300
O2017       O  0.99654134  0.24109379  0.80283134    -0.81200
O2018       O  0.95475965  0.20234129  0.87092553    -0.74800
Al2019     Al  0.96757695  0.21233219  0.79552746     1.90100
O2020       O  0.98894497  0.24563549  0.85321032    -0.73800
O2021       O  0.91305183  0.23919295  0.87362744    -0.73700
O2022       O  0.94451313  0.28055941  0.84849243    -0.79300
O2023       O  0.88740994  0.21915173  0.83671931    -0.77600
O2024       O  0.94121350  0.23056030  0.81803345    -1.13700
O2025       O  0.90240550  0.20357652  0.77846158    -0.72900
C2026       C  0.91769721  0.18196548  0.77244050     0.97800
C2027       C  0.50510678  0.24846031  0.83078544     0.94200
Al2028     Al  0.94959195  0.24100175  0.85780277     1.55600
O2029       O  0.95918422  0.23062034  0.75769540    -0.77500
C2030       C  0.89158592  0.22542570  0.86533738     0.98400
C2031       C  0.97088896  0.18490197  0.85705111     0.93300
O2032       O  0.98049284  0.18978496  0.82979410    -0.82800
O2033       O  0.81478050  0.21548130  0.01678961    -0.82300
C2034       C  0.91149256  0.24424562  0.08779426     0.97100
O2035       O  0.90133805  0.24921026  0.06039718    -0.71400
O2036       O  0.86854057  0.24071322  0.00826680    -0.75000
Al2037     Al  0.86091389  0.25091084  0.05129617     1.49000
C2038       C  0.87061250  0.21739274  0.99336766     0.92300
O2039       O  0.86336835  0.15690671  0.05722739    -0.81200
O2040       O  0.83669663  0.17742572  0.11034575    -0.74800
Al2041     Al  0.84069566  0.18911449  0.03938409     1.90100
O2042       O  0.89182236  0.17779987  0.09140778    -0.73800
O2043       O  0.83895063  0.23169663  0.11981270    -0.73700
O2044       O  0.89651792  0.23166349  0.10816713    -0.79300
O2045       O  0.85303966  0.26868954  0.09195686    -0.77600
O2046       O  0.85582105  0.21516036  0.06455009    -1.13700
O2047       O  0.82139401  0.25655179  0.04027667    -0.72900
C2048       C  0.80767829  0.24155778  0.02048421     0.97800
C2049       C  0.88387599  0.15553924  0.07727565     0.94200
Al2050     Al  0.86524370  0.20563458  0.10403085     1.55600
O2051       O  0.86871840  0.19383206  0.00799566    -0.77500
C2052       C  0.84110278  0.25823049  0.11618997     0.98400
C2053       C  0.81375111  0.17395116  0.09545074     0.93300
O2054       O  0.81069234  0.18249052  0.06738095    -0.82800
O2055       O  0.55641569  0.35144219  0.13805553    -0.82300
C2056       C  0.61165732  0.24625603  0.11699873     0.97100
O2057       O  0.60067696  0.26314059  0.09698322    -0.71400
O2058       O  0.54667002  0.27090562  0.11275954    -0.75000
Al2059     Al  0.57670041  0.29585634  0.10162257     1.49000
C2060       C  0.52509507  0.27992550  0.12750597     0.92300
O2061       O  0.56171770  0.29056778  0.19656382    -0.81200
O2062       O  0.62913673  0.33254160  0.16926263    -0.74800
Al2063     Al  0.56046233  0.31996483  0.16607769     1.90100
O2064       O  0.60823307  0.28511854  0.19815526    -0.73800
O2065       O  0.63974138  0.30251014  0.11651491    -0.73700
O2066       O  0.61598548  0.25445842  0.14511727    -0.79300
O2067       O  0.60475671  0.32090267  0.08785239    -0.77600
O2068       O  0.58580244  0.30317755  0.14165523    -1.13700
O2069       O  0.55053240  0.32593472  0.09535317    -0.72900
C2070       C  0.54615887  0.34824083  0.11069952     0.97800
C2071       C  0.58414926  0.28364200  0.21128262     0.94200
Al2072     Al  0.62045382  0.29422714  0.15612259     1.55600
O2073       O  0.52770446  0.30025888  0.14725011    -0.77500
C2074       C  0.63084540  0.31602638  0.09217480     0.98400
C2075       C  0.61460903  0.34740532  0.18824218     0.93300
O2076       O  0.58794889  0.34292771  0.19023093    -0.82800
O2077       O  0.71482058  0.07130247  0.01653709    -0.82300
C2078       C  0.61745814  0.04397048  0.08648452     0.97100
O2079       O  0.62890323  0.03708068  0.06065540    -0.71400
O2080       O  0.66031938  0.04765564  0.00903924    -0.75000
Al2081     Al  0.66918547  0.03686402  0.05232922     1.49000
C2082       C  0.65633157  0.07163241  0.99520881     0.92300
O2083       O  0.66975845  0.13187781  0.05599613    -0.81200
O2084       O  0.69316171  0.11087697  0.10953827    -0.74800
Al2085     Al  0.69025235  0.09827544  0.03950706     1.90100
O2086       O  0.63806992  0.11225009  0.08660204    -0.73800
O2087       O  0.68682845  0.05774731  0.12241855    -0.73700
O2088       O  0.63065023  0.05964515  0.10573476    -0.79300
O2089       O  0.67737091  0.01980467  0.09384646    -0.77600
O2090       O  0.67393576  0.07286790  0.06472030    -1.13700
O2091       O  0.70882648  0.03105519  0.04178916    -0.72900
C2092       C  0.72219280  0.04540292  0.02124843     0.97800
C2093       C  0.64789906  0.13420340  0.07338901     0.94200
Al2094     Al  0.66300687  0.08401524  0.10281202     1.55600
O2095       O  0.66149002  0.09494773  0.00889027    -0.77500
C2096       C  0.68638945  0.03112757  0.11924845     0.98400
C2097       C  0.71685465  0.11261589  0.09591207     0.93300
O2098       O  0.72038972  0.10308693  0.06841074    -0.82800
O2099       O  0.96368545  0.43331083  0.14176867    -0.82300
C2100       C  0.92280327  0.04199071  0.11758655     0.97100
O2101       O  0.93502697  0.02578261  0.09841466    -0.71400
O2102       O  0.98747029  0.01352882  0.11607151    -0.75000
Al2103     Al  0.95013719  0.49196321  0.10617559     1.49000
C2104       C  0.50790649  0.00222778  0.12975822     0.92300
O2105       O  0.96362164  0.49285813  0.19984472    -0.81200
O2106       O  0.89464016  0.45296666  0.17033369    -0.74800
Al2107     Al  0.96327506  0.46382839  0.16973316     1.90100
O2108       O  0.92559421  0.99992213  0.19760448    -0.73800
O2109       O  0.88523535  0.48492345  0.11838281    -0.73700
O2110       O  0.91742510  0.03288861  0.14520191    -0.79300
O2111       O  0.92092288  0.47105353  0.08876222    -0.77600
O2112       O  0.93911697  0.48290578  0.14498850    -1.13700
O2113       O  0.97293112  0.45894187  0.09957690    -0.72900
C2114       C  0.97181342  0.43514762  0.11359978     0.97800
C2115       C  0.94984993  0.99877701  0.21111550     0.94200
Al2116     Al  0.90425836  0.49184732  0.15835931     1.55600
O2117       O  0.49843664  0.48087051  0.15159864    -0.77500
C2118       C  0.89469831  0.47349307  0.09354050     0.98400
C2119       C  0.90852558  0.43760128  0.18994053     0.93300
O2120       O  0.93493557  0.44233503  0.19365580    -0.82800
O2121       O  0.97038008  0.09860724  0.38495860    -0.82300
C2122       C  0.86799838  0.03923270  0.36792469     0.97100
O2123       O  0.88060572  0.05496630  0.34838005    -0.71400
O2124       O  0.88853076  0.10896711  0.36521607    -0.75000
Al2125     Al  0.91279524  0.07931313  0.35068042     1.49000
C2126       C  0.89881089  0.13066105  0.37870287     0.92300
O2127       O  0.91305149  0.09059089  0.44538846    -0.81200
O2128       O  0.95948915  0.02679327  0.41392275    -0.74800
Al2129     Al  0.94091428  0.09412154  0.41403041     1.90100
O2130       O  0.91164774  0.04346980  0.44536102    -0.73800
O2131       O  0.92807323  0.01503774  0.36251710    -0.73700
O2132       O  0.87967461  0.03277397  0.39408018    -0.79300
O2133       O  0.93602828  0.05243084  0.33218629    -0.77600
O2134       O  0.92416614  0.06858176  0.38937583    -1.13700
O2135       O  0.94273987  0.10541591  0.34327468    -0.72900
C2136       C  0.96651881  0.10719348  0.35696282     0.97800
C2137       C  0.90952872  0.06708019  0.45978406     0.94200
Al2138     Al  0.91981336  0.03258190  0.40277783     1.55600
O2139       O  0.92026155  0.12773468  0.39705390    -0.77500
C2140       C  0.93737355  0.02601195  0.33723271     0.98400
C2141       C  0.97297888  0.04174384  0.43385897     0.93300
O2142       O  0.96582118  0.06769080  0.43709530    -0.82800
O2143       O  0.55601596  0.17981668  0.39023958    -0.82300
C2144       C  0.65851404  0.23743982  0.36986595     0.97100
O2145       O  0.64384334  0.22305136  0.35088804    -0.71400
O2146       O  0.63834406  0.17051200  0.37142282    -0.75000
Al2147     Al  0.61257233  0.19842172  0.35548520     1.49000
C2148       C  0.62892034  0.14870350  0.38543878     0.92300
O2149       O  0.61487107  0.18792142  0.45006713    -0.81200
O2150       O  0.56872528  0.25191374  0.41786093    -0.74800
Al2151     Al  0.58635317  0.18431321  0.41911503     1.90100
O2152       O  0.61728477  0.23508890  0.44867970    -0.73800
O2153       O  0.59896243  0.26223563  0.36466617    -0.73700
O2154       O  0.64828261  0.24422523  0.39640268    -0.79300
O2155       O  0.58766768  0.22434273  0.33676275    -0.77600
O2156       O  0.60252545  0.20960647  0.39384070    -1.13700
O2157       O  0.58335985  0.17137654  0.34959928    -0.72900
C2158       C  0.55935285  0.17129368  0.36234477     0.97800
C2159       C  0.61997818  0.21145910  0.46340260     0.94200
Al2160     Al  0.60799807  0.24551038  0.40590844     1.55600
O2161       O  0.60708511  0.15104242  0.40285168    -0.77500
C2162       C  0.58887770  0.25096383  0.33972535     0.98400
C2163       C  0.55530256  0.23678906  0.43774031     0.93300
O2164       O  0.56220588  0.21080458  0.44144295    -0.82800
O2165       O  0.82857142  0.34310371  0.26826133    -0.82300
C2166       C  0.85942527  0.24477557  0.33861597     0.97100
O2167       O  0.86449217  0.25581277  0.31179565    -0.71400
O2168       O  0.85544796  0.28911753  0.26015263    -0.75000
Al2169     Al  0.86455886  0.29665610  0.30351408     1.49000
C2170       C  0.83252453  0.28632937  0.24453986     0.92300
O2171       O  0.77100329  0.29259752  0.30525014    -0.81200
O2172       O  0.78942069  0.31828473  0.36000653    -0.74800
Al2173     Al  0.80248824  0.31621076  0.28948551     1.90100
O2174       O  0.79201478  0.26346617  0.33929698    -0.73800
O2175       O  0.84335392  0.31636111  0.37208571    -0.73700
O2176       O  0.84528901  0.25892823  0.35845649    -0.79300
O2177       O  0.88109106  0.30422524  0.34493135    -0.77600
O2178       O  0.82850809  0.30097231  0.31544487    -1.13700
O2179       O  0.86914417  0.33654968  0.29325487    -0.72900
C2180       C  0.85444582  0.35027094  0.27282080     0.97800
C2181       C  0.76988777  0.27178432  0.32482244     0.94200
Al2182     Al  0.81854020  0.29019137  0.35413056     1.55600
O2183       O  0.80877185  0.28862409  0.25801730    -0.77500
C2184       C  0.86988758  0.31441529  0.36962570     0.98400
C2185       C  0.78349272  0.34106103  0.34535246     0.93300
O2186       O  0.79316851  0.34585107  0.31811266    -0.82800
O2187       O  0.69404308  0.43237479  0.28069315    -0.82300
C2188       C  0.67173456  0.04092472  0.33733229     0.97100
O2189       O  0.65420912  0.02544066  0.32201023    -0.71400
O2190       O  0.67183638  0.00741953  0.26471073    -0.75000
Al2191     Al  0.65948431  0.48964775  0.30248070     1.49000
C2192       C  0.69229294  0.99925671  0.24749583     0.92300
O2193       O  0.75161248  0.48757235  0.30645890    -0.81200
O2194       O  0.70569186  0.45358252  0.37219154    -0.74800
Al2195     Al  0.71998095  0.46201376  0.29626749     1.90100
O2196       O  0.74088491  0.49512850  0.35521599    -0.73800
O2197       O  0.66470704  0.49286840  0.37315797    -0.73700
O2198       O  0.69583115  0.03103215  0.34565488    -0.79300
O2199       O  0.64041667  0.47045632  0.33708179    -0.77600
O2200       O  0.69395331  0.48132448  0.31832220    -1.13700
O2201       O  0.65382324  0.45556125  0.27918415    -0.72900
C2202       C  0.66809211  0.43377898  0.27208135     0.97800
C2203       C  0.75620873  0.99661894  0.33104115     0.94200
Al2204     Al  0.70183382  0.49233348  0.35803957     1.55600
O2205       O  0.71442313  0.48310274  0.25918323    -0.77500
C2206       C  0.64461416  0.47692742  0.36562455     0.98400
C2207       C  0.72011973  0.43453644  0.35829345     0.93300
O2208       O  0.72879825  0.43758377  0.33029869    -0.82800
C2209       C  0.76350876  0.36128485  0.35939034    -0.00600
C2210       C  0.77397373  0.38314851  0.37862156    -0.12500
C2211       C  0.75641932  0.40636390  0.38617241     0.01600
C2212       C  0.72854695  0.40781279  0.37363216    -0.00700
C2213       C  0.71674071  0.38343012  0.35974308    -0.12500
C2214       C  0.73422860  0.36039500  0.35175343     0.01500
H2215       H  0.79629683  0.38323966  0.38550215     0.14500
H2216       H  0.69519978  0.38446312  0.35019694     0.14500
C2217       C  0.72221620  0.33789541  0.33269927     0.36100
C2218       C  0.76859780  0.43049304  0.40244318     0.36000
N2219       N  0.71205315  0.32033460  0.31718385    -0.44200
N2220       N  0.77826479  0.44985044  0.41555546    -0.44200
C2221       C  0.74205535  0.26073410  0.33566678    -0.00600
C2222       C  0.73647505  0.26123118  0.36833677    -0.12500
C2223       C  0.70953654  0.25426671  0.38025268     0.01600
C2224       C  0.68751149  0.24613090  0.35930100    -0.00700
C2225       C  0.69348237  0.24510311  0.32660559    -0.12500
C2226       C  0.72030132  0.25240190  0.31477449     0.01500
H2227       H  0.75307650  0.26794639  0.38464198     0.14500
H2228       H  0.67700492  0.23881002  0.30994862     0.14500
C2229       C  0.72520947  0.25065294  0.28124008     0.36100
C2230       C  0.70531052  0.25540408  0.41396825     0.36000
N2231       N  0.72926235  0.24910135  0.25438023    -0.44200
N2232       N  0.70189062  0.25634874  0.44098881    -0.44200
C2233       C  0.66200952  0.06887875  0.34988063    -0.00600
C2234       C  0.63459738  0.07024463  0.36271511    -0.12500
C2235       C  0.62428117  0.09517675  0.37688894     0.01600
C2236       C  0.64122731  0.12013559  0.37748523    -0.00700
C2237       C  0.66907512  0.11852282  0.36529458    -0.12500
C2238       C  0.67969449  0.09308141  0.35210255     0.01500
H2239       H  0.62123557  0.05146277  0.36204601     0.14500
H2240       H  0.68242552  0.13739475  0.36546787     0.14500
C2241       C  0.70829231  0.09266017  0.33985017     0.36100
C2242       C  0.59583424  0.09449717  0.38958264     0.36000
N2243       N  0.73121025  0.09217324  0.33001067    -0.44200
N2244       N  0.57309039  0.09375962  0.39987200    -0.44200
C2245       C  0.98911117  0.12282853  0.34218374    -0.00600
C2246       C  0.98601846  0.15262758  0.34205991    -0.12500
C2247       C  0.50876830  0.17093556  0.34546559     0.01600
C2248       C  0.53585431  0.15799451  0.34612787    -0.00700
C2249       C  0.53922706  0.12905987  0.33900113    -0.12500
C2250       C  0.51556240  0.11147700  0.33874310     0.01500
H2251       H  0.96502987  0.16225648  0.34430308     0.14500
H2252       H  0.56035739  0.11951995  0.33882393     0.14500
C2253       C  0.52003246  0.08090051  0.33971720     0.36100
C2254       C  0.50495634  0.20118595  0.35106201     0.36000
N2255       N  0.52430011  0.05652095  0.34115799    -0.44200
N2256       N  0.50183835  0.22539239  0.35560526    -0.44200
C2257       C  0.88818544  0.15982204  0.36931940    -0.00600
C2258       C  0.88536336  0.16637828  0.33687641    -0.12500
C2259       C  0.87703816  0.19384924  0.32616535     0.01600
C2260       C  0.87020063  0.21547698  0.34811739    -0.00700
C2261       C  0.87311692  0.20878482  0.38063716    -0.12500
C2262       C  0.88256794  0.18165338  0.39124177     0.01500
H2263       H  0.89037218  0.15005124  0.31967526     0.14500
H2264       H  0.86838126  0.22501127  0.39803490     0.14500
C2265       C  0.88577024  0.17660832  0.42476773     0.36100
C2266       C  0.87546517  0.19897356  0.29252119     0.36000
N2267       N  0.88838416  0.17265316  0.45166551    -0.44200
N2268       N  0.87440300  0.20304161  0.26552787    -0.44200
C2269       C  0.78532702  0.00758184  0.33904790    -0.00600
C2270       C  0.79048008  0.01641931  0.37053647    -0.12500
C2271       C  0.81712909  0.02629581  0.38058083     0.01600
C2272       C  0.83959921  0.02792302  0.35898531    -0.00700
C2273       C  0.83474175  0.01930416  0.32754790    -0.12500
C2274       C  0.80808831  0.00893447  0.31752142     0.01500
H2275       H  0.77354268  0.01576817  0.38775710     0.14500
H2276       H  0.85202813  0.02034477  0.31077295     0.14500
C2277       C  0.80506197  0.99955085  0.28527236     0.36100
C2278       C  0.82040651  0.03587518  0.41280311     0.36000
N2279       N  0.80286688  0.99195911  0.25939794    -0.44200
N2280       N  0.82300082  0.04365702  0.43857083    -0.44200
C2281       C  0.86811745  0.37351663  0.25248590    -0.00600
C2282       C  0.85291126  0.38570200  0.22663717    -0.12500
C2283       C  0.86540399  0.40586965  0.20575000     0.01600
C2284       C  0.89404742  0.41486274  0.21016047    -0.00700
C2285       C  0.90924569  0.40248689  0.23577838    -0.12500
C2286       C  0.89691365  0.38225737  0.25646355     0.01500
H2287       H  0.83112025  0.37911494  0.22227042     0.14500
H2288       H  0.93115812  0.40876567  0.23997709     0.14500
C2289       C  0.91485730  0.37072053  0.28139394     0.36100
C2290       C  0.84832206  0.41644308  0.17959089     0.36000
N2291       N  0.92936368  0.36140804  0.30124983    -0.44200
N2292       N  0.83465659  0.42487189  0.15855952    -0.44200
C2293       C  0.95120454  0.00125008  0.24554141    -0.00600
C2294       C  0.92328492  0.49058293  0.26762957    -0.12500
C2295       C  0.92887671  0.98986998  0.29574021     0.01600
C2296       C  0.94756998  0.00888053  0.31083481    -0.00700
C2297       C  0.97065613  0.02011481  0.29395450    -0.12500
C2298       C  0.97281982  0.01623288  0.26142841     0.01500
H2299       H  0.90762152  0.47632580  0.25729187     0.14500
H2300       H  0.98509360  0.03471904  0.30551708     0.14500
C2301       C  0.99578269  0.02995847  0.24479414     0.36100
C2302       C  0.90156918  0.48186323  0.31910317     0.36000
N2303       N  0.01433625  0.04094777  0.23171112    -0.44200
N2304       N  0.88434860  0.47083961  0.33424139    -0.44200
C2305       C  0.69264387  0.00644621  0.21388020    -0.00600
C2306       C  0.67293640  0.49412760  0.19765962    -0.12500
C2307       C  0.67275057  0.99686215  0.16177787     0.01600
C2308       C  0.69339016  0.01469668  0.14803575    -0.00700
C2309       C  0.71546322  0.02546073  0.16728390    -0.12500
C2310       C  0.71541203  0.02114889  0.20001046     0.01500
H2311       H  0.65579578  0.48314339  0.20974810     0.14500
H2312       H  0.73151403  0.03922404  0.15697606     0.14500
C2313       C  0.73798026  0.03319349  0.21904028     0.36100
C2314       C  0.64891820  0.48310266  0.14820892     0.36000
N2315       N  0.75604673  0.04282920  0.23434898    -0.44200
N2316       N  0.62990704  0.47223387  0.13567222    -0.44200
C2317       C  0.53666915  0.01275869  0.12106639    -0.00600
C2318       C  0.55513053  0.99435735  0.10477430    -0.12500
C2319       C  0.58049271  0.00449169  0.09128780     0.01600
C2320       C  0.58876887  0.03324401  0.09566749    -0.00700
C2321       C  0.57028279  0.05159993  0.11209559    -0.12500
C2322       C  0.54411046  0.04186153  0.12382139     0.01500
H2323       H  0.54131548  0.47139916  0.10328559     0.14500
H2324       H  0.57615052  0.07381856  0.11540648     0.14500
C2325       C  0.52513316  0.06211834  0.13851115     0.36100
C2326       C  0.59195197  0.48063600  0.07835879     0.36000
N2327       N  0.00946341  0.07852343  0.14692194    -0.44200
N2328       N  0.60499554  0.46407086  0.06423152    -0.44200
C2329       C  0.62890468  0.36941791  0.20941559    -0.00600
C2330       C  0.61205187  0.38933863  0.22577080    -0.12500
C2331       C  0.62405295  0.40964946  0.24655029     0.01600
C2332       C  0.65406027  0.41066131  0.25212023    -0.00700
C2333       C  0.67088716  0.39035795  0.23624462    -0.12500
C2334       C  0.65881946  0.37010473  0.21529183     0.01500
H2335       H  0.58913253  0.38920366  0.22225582     0.14500
H2336       H  0.69379151  0.39050581  0.23980746     0.14500
C2337       C  0.67788588  0.34990118  0.20071977     0.36100
C2338       C  0.60457750  0.42903209  0.26187899     0.36000
N2339       N  0.69316563  0.33366186  0.18906208    -0.44200
N2340       N  0.58884830  0.44454216  0.27400278    -0.44200
C2341       C  0.58248802  0.26750572  0.31097201    -0.00600
C2342       C  0.55997000  0.25776659  0.29175144    -0.12500
C2343       C  0.56000347  0.26245458  0.25909627     0.01600
C2344       C  0.58272453  0.27752402  0.24536456    -0.00700
C2345       C  0.60386174  0.28936111  0.26494959    -0.12500
C2346       C  0.60391226  0.28452930  0.29752991     0.01500
H2347       H  0.54379222  0.24408983  0.30189086     0.14500
H2348       H  0.62082769  0.30193541  0.25465071     0.14500
C2349       C  0.62781007  0.29463572  0.31600509     0.36100
C2350       C  0.53806307  0.24924596  0.24008821     0.36000
N2351       N  0.64695841  0.30263327  0.33086375    -0.44200
N2352       N  0.52058878  0.23836354  0.22497259    -0.44200
C2353       C  0.52389960  0.36728782  0.09984159    -0.00600
C2354       C  0.49664896  0.36179856  0.11131996    -0.12500
C2355       C  0.97639509  0.38265754  0.11067498     0.01600
C2356       C  0.98384239  0.40986469  0.09910265    -0.00700
C2357       C  0.50891910  0.41381548  0.08181731    -0.12500
C2358       C  0.52923368  0.39202520  0.08205259     0.01500
H2359       H  0.49216276  0.34172296  0.12329763     0.14500
H2360       H  0.51413824  0.43439526  0.07139079     0.14500
C2361       C  0.55537798  0.39587882  0.06508270     0.36100
C2362       C  0.94906704  0.37719671  0.12493893     0.36000
N2363       N  0.57577327  0.39911630  0.05042273    -0.44200
N2364       N  0.92720611  0.37294471  0.13642958    -0.44200
C2365       C  0.63609823  0.16276720  0.08233560    -0.00600
C2366       C  0.62329967  0.16555919  0.11226380    -0.12500
C2367       C  0.61554734  0.19241615  0.12427800     0.01600
C2368       C  0.62007312  0.21728033  0.10610642    -0.00700
C2369       C  0.63164671  0.21447005  0.07568559    -0.12500
C2370       C  0.63996939  0.18770733  0.06390144    -0.03300
H2371       H  0.62018718  0.14675425  0.12695356     0.14500
H2372       H  0.63475778  0.23341273  0.06120863     0.14500
C2373       C  0.65279746  0.18655699  0.03308719     0.36100
C2374       C  0.60223055  0.19383996  0.15485867     0.36000
N2375       N  0.66322913  0.18553440  0.00845835    -0.44200
N2376       N  0.59144727  0.19513849  0.17928907    -0.44200
C2377       C  0.83341838  0.28333313  0.20971783    -0.00600
C2378       C  0.80894552  0.27391831  0.19356323    -0.12500
C2379       C  0.80922434  0.26998449  0.16085809     0.01600
C2380       C  0.83426794  0.27548994  0.14381487    -0.00700
C2381       C  0.85736070  0.28829966  0.15911054    -0.12500
C2382       C  0.85729967  0.29215472  0.19180987     0.01500
H2383       H  0.78986453  0.26861708  0.20657385     0.14500
H2384       H  0.87667318  0.29257569  0.14602791     0.14500
C2385       C  0.88242004  0.30460296  0.20599086     0.36100
C2386       C  0.78402981  0.25905060  0.14537506     0.36000
N2387       N  0.90269797  0.31454592  0.21703638    -0.44200
N2388       N  0.76362635  0.25062916  0.13310391    -0.44200
C2389       C  0.79043102  0.15874519  0.10995075    -0.00600
C2390       C  0.76441747  0.17322326  0.11184055    -0.12500
C2391       C  0.73913021  0.15793309  0.11263474     0.01600
C2392       C  0.74022296  0.12791029  0.11059475    -0.00700
C2393       C  0.76630319  0.11348282  0.11362753    -0.12500
C2394       C  0.79163248  0.12883688  0.11370034     0.01500
H2395       H  0.76375363  0.19629583  0.10935526     0.14500
H2396       H  0.76694917  0.09030281  0.11257469     0.14500
C2397       C  0.81819770  0.11318118  0.11351966     0.36100
C2398       C  0.71269660  0.17376958  0.11144973     0.36000
N2399       N  0.83914080  0.10002538  0.11361868    -0.44200
N2400       N  0.69199803  0.18729519  0.11093127    -0.44200
C2401       C  0.94074488  0.25341234  0.09729785    -0.00600
C2402       C  0.94528116  0.26338757  0.12826929    -0.12500
C2403       C  0.97254157  0.27115176  0.13917308     0.01600
C2404       C  0.99627000  0.26896438  0.11899785    -0.00700
C2405       C  0.99177223  0.25829922  0.08823448    -0.12500
C2406       C  0.96447761  0.25054180  0.07735638     0.01500
H2407       H  0.92735106  0.26513344  0.14414737     0.14500
H2408       H  0.00962370  0.25637632  0.07229718     0.14500
C2409       C  0.96166719  0.23833624  0.04624213     0.36100
C2410       C  0.97562982  0.28035910  0.17150863     0.36000
N2411       N  0.95947393  0.22830529  0.02141600    -0.44200
N2412       N  0.47766589  0.28856250  0.19672365    -0.44200
C2413       C  0.91438111  0.07140408  0.10659476    -0.00600
C2414       C  0.91132455  0.09330383  0.12872012    -0.12500
C2415       C  0.90303868  0.12106390  0.11942414     0.01600
C2416       C  0.89644538  0.12736678  0.08720849    -0.00700
C2417       C  0.89972298  0.10555898  0.06500675    -0.12500
C2418       C  0.90929799  0.07812882  0.07410889     0.01500
H2419       H  0.91551761  0.08875249  0.15353254     0.14500
H2420       H  0.89490274  0.11001924  0.04030450     0.14500
C2421       C  0.91337745  0.05743338  0.04932690     0.36100
C2422       C  0.90006801  0.14206682  0.14404989     0.36000
N2423       N  0.91691967  0.04105761  0.02932644    -0.44200
N2424       N  0.89789083  0.15862396  0.16410683    -0.44200
C2425       C  0.87283339  0.21756874  0.89131803    -0.00600
C2426       C  0.86143451  0.24103356  0.90730850    -0.12500
C2427       C  0.86122774  0.24178953  0.94030003     0.01600
C2428       C  0.87108842  0.21776712  0.95816365    -0.00700
C2429       C  0.87847035  0.19272390  0.94179357    -0.12500
C2430       C  0.87948637  0.19253722  0.90865986     0.01500
H2431       H  0.85656281  0.26052345  0.89407630     0.14500
H2432       H  0.88474747  0.17360475  0.95487563     0.14500
C2433       C  0.89025621  0.16744499  0.89296495     0.36100
C2434       C  0.85211703  0.26823693  0.95461823     0.36000
N2435       N  0.89876064  0.14729013  0.88034128    -0.44200
N2436       N  0.84509707  0.28971513  0.96563866    -0.44200
C2437       C  0.64864573  0.07246809  0.96153613    -0.00600
C2438       C  0.66297007  0.05387181  0.94109709    -0.12500
C2439       C  0.65665931  0.05374627  0.90874913     0.01600
C2440       C  0.63560198  0.07255226  0.89654802    -0.00700
C2441       C  0.62311175  0.09280697  0.91671660    -0.12500
C2442       C  0.62924728  0.09274703  0.94903824     0.01500
H2443       H  0.67877949  0.03902461  0.95055272     0.14500
H2444       H  0.60671678  0.10719248  0.90760495     0.14500
C2445       C  0.61355014  0.11197314  0.96914212     0.36100
C2446       C  0.67030929  0.03248347  0.88936020     0.36000
N2447       N  0.60080794  0.12720321  0.98526640    -0.44200
N2448       N  0.68126077  0.01537465  0.87392193    -0.44200
C2449       C  0.97856133  0.15727798  0.87054354    -0.00600
C2450       C  0.96765291  0.13449603  0.85295537    -0.12500
C2451       C  0.48644979  0.11266408  0.84484250     0.01600
C2452       C  0.51550117  0.11294057  0.85341519    -0.00700
C2453       C  0.52548179  0.13276558  0.87543903    -0.12500
C2454       C  0.50771942  0.15512154  0.88500009     0.01500
H2455       H  0.94678498  0.13662793  0.84184468     0.14500
H2456       H  0.54751307  0.13190190  0.88340541     0.14500
C2457       C  0.51913474  0.17695882  0.90533412     0.36100
C2458       C  0.97538193  0.09349442  0.81899474     0.36000
N2459       N  0.52843237  0.19409272  0.92207085    -0.44200
N2460       N  0.96649956  0.07872225  0.79946289    -0.44200
C2461       C  0.78438087  0.25483429  0.99982820    -0.00600
C2462       C  0.76800896  0.23729495  0.97967035    -0.12500
C2463       C  0.74734892  0.24874315  0.95844821     0.01600
C2464       C  0.74247353  0.27875809  0.95644999    -0.00700
C2465       C  0.75891208  0.29623523  0.97651120    -0.12500
C2466       C  0.77938701  0.28482207  0.99782544     0.01500
H2467       H  0.77126426  0.21431834  0.98045590     0.14500
H2468       H  0.75569535  0.31921757  0.97578028     0.14500
C2469       C  0.79526112  0.30486600  0.01679156     0.36100
C2470       C  0.73091561  0.22884181  0.93985814     0.36000
N2471       N  0.80801598  0.32105133  0.03182179    -0.44200
N2472       N  0.71758695  0.21285895  0.92516698    -0.44200
C2473       C  0.65510877  0.31998297  0.99891402    -0.00600
C2474       C  0.64760662  0.34558708  0.01412028    -0.12500
C2475       C  0.64511689  0.34641423  0.04700940     0.01600
C2476       C  0.64900773  0.32124533  0.06494034    -0.00700
C2477       C  0.66029763  0.29697312  0.05055079    -0.12500
C2478       C  0.66365028  0.29614657  0.01782888     0.01500
H2479       H  0.64320563  0.36480056  0.00039732     0.14500
H2480       H  0.66400970  0.27771623  0.06449220     0.14500
C2481       C  0.67604105  0.27051476  0.00483705     0.36100
C2482       C  0.63835207  0.37306536  0.06230709     0.36000
N2483       N  0.68622150  0.24985568  0.99499531    -0.44200
N2484       N  0.63374058  0.39441010  0.07503488    -0.44200
C2485       C  0.53413500  0.25902094  0.83757259    -0.00600
C2486       C  0.54904607  0.24559069  0.86251751    -0.12500
C2487       C  0.57435808  0.25680896  0.87476534     0.01600
C2488       C  0.58593246  0.28184738  0.86133228    -0.00700
C2489       C  0.57108104  0.29522972  0.83598708    -0.12500
C2490       C  0.54512789  0.28434683  0.82448342     0.01500
H2491       H  0.54038871  0.22636353  0.87296656     0.14500
H2492       H  0.57943806  0.31466872  0.82554815     0.14500
C2493       C  0.52921146  0.30068660  0.80119590     0.36100
C2494       C  0.58802876  0.24179733  0.90076610     0.36000
N2495       N  0.51637951  0.31420675  0.78293252    -0.44200
N2496       N  0.59888930  0.22984347  0.92172007    -0.44200
C2497       C  0.61726399  0.46586400  0.84957828    -0.00600
C2498       C  0.62205694  0.46054308  0.88213042    -0.12500
C2499       C  0.63169046  0.43373025  0.89332875     0.01600
C2500       C  0.63496258  0.41088338  0.87214329    -0.00700
C2501       C  0.62926910  0.41587364  0.83980752    -0.12500
C2502       C  0.62134617  0.44308446  0.82832975     0.01500
H2503       H  0.61908723  0.47769585  0.89894075     0.14500
H2504       H  0.63230236  0.39864520  0.82308576     0.14500
C2505       C  0.61776654  0.44692851  0.79464809     0.36100
C2506       C  0.63794633  0.43014622  0.92658535     0.36000
N2507       N  0.61521581  0.45007968  0.76761879    -0.44200
N2508       N  0.64319987  0.42720663  0.95318892    -0.44200
C2509       C  0.78691298  0.00539696  0.95942019    -0.00600
C2510       C  0.77048796  0.48687358  0.98495330    -0.12500
C2511       C  0.75715467  0.00398294  0.00756229     0.01600
C2512       C  0.74545790  0.03159316  0.00120075    -0.00700
C2513       C  0.75512387  0.04565902  0.97367123    -0.12500
C2514       C  0.77528039  0.03306102  0.95309490     0.01500
H2515       H  0.77836214  0.46546228  0.99002758     0.14500
H2516       H  0.74649024  0.06659498  0.96770626     0.14500
C2517       C  0.78307138  0.04899691  0.92518003     0.36100
C2518       C  0.74061201  0.48162425  0.03157596     0.36000
N2519       N  0.78935855  0.06164726  0.90272404    -0.44200
N2520       N  0.73319089  0.46773184  0.05265364    -0.44200
C2521       C  0.87194002  0.46304897  0.00107793    -0.00600
C2522       C  0.85905463  0.48554006  0.01783174    -0.12500
C2523       C  0.86087222  0.48658846  0.05079277     0.01600
C2524       C  0.87640215  0.46527613  0.06711158    -0.00700
C2525       C  0.88513685  0.44069828  0.05097237    -0.12500
C2526       C  0.88355877  0.43960199  0.01813315     0.01500
H2527       H  0.84808554  0.50266073  0.00516567     0.14500
H2528       H  0.89682197  0.42405947  0.06370918     0.14500
C2529       C  0.89621737  0.41521016  0.00287494     0.36100
C2530       C  0.84903782  0.51093868  0.06702140     0.36000
N2531       N  0.90644390  0.39541461  0.99118191    -0.44200
N2532       N  0.83942430  0.53037965  0.08004079    -0.44200
C2533       C  0.73911635  0.37061279  0.84498689    -0.00600
C2534       C  0.76478937  0.35618255  0.85074453    -0.12500
C2535       C  0.78944057  0.37162239  0.85604376     0.01600
C2536       C  0.78855627  0.40157527  0.85263857    -0.00700
C2537       C  0.76413120  0.41529439  0.84074248    -0.12500
C2538       C  0.73910330  0.39981498  0.83668555     0.01500
H2539       H  0.76451983  0.33351474  0.85670924     0.14500
H2540       H  0.76388656  0.43836914  0.83767423     0.14500
C2541       C  0.71322062  0.41493985  0.82820303     0.36100
C2542       C  0.81321223  0.35673026  0.87063433     0.36000
N2543       N  0.69267768  0.42727430  0.82108482    -0.44200
N2544       N  0.83129030  0.34396264  0.88316340    -0.44200
C2545       C  0.93665992  0.49987681  0.86004097    -0.00600
C2546       C  0.94062074  0.50422366  0.82725123    -0.12500
C2547       C  0.96721782  0.51195577  0.81482041     0.01600
C2548       C  0.99292368  0.01352438  0.82989924    -0.00700
C2549       C  0.98950023  0.00950312  0.86269517    -0.12500
C2550       C  0.96296310  0.00288913  0.87572737     0.01500
H2551       H  0.92278937  0.50156942  0.81106560     0.14500
H2552       H  0.00759483  0.01233086  0.87849650     0.14500
C2553       C  0.96124749  0.99901113  0.90952429     0.36100
C2554       C  0.47057344  0.51557342  0.78108133     0.36000
N2555       N  0.95999222  0.99595984  0.93663403    -0.44200
N2556       N  0.47325849  0.51884567  0.75414993    -0.44200
C2557       C  0.89255944  0.37336582  0.87430726    -0.00600
C2558       C  0.88191477  0.36297086  0.84545256    -0.12500
C2559       C  0.89149138  0.33699046  0.83275352     0.01600
C2560       C  0.91256631  0.32060806  0.84889107    -0.00700
C2561       C  0.92450881  0.33203456  0.87684251    -0.12500
C2562       C  0.91499510  0.35827920  0.88930483     0.01500
H2563       H  0.86569013  0.37525808  0.83273055     0.14500
H2564       H  0.94124145  0.32027163  0.88932277     0.14500
C2565       C  0.92968085  0.37006758  0.91623598     0.36100
C2566       C  0.87996996  0.32827991  0.80259457     0.36000
N2567       N  0.94217964  0.37962304  0.93732155    -0.44200
N2568       N  0.87083738  0.32152225  0.77828333    -0.44200
C2569       C  0.88056417  0.11915478  0.70657557    -0.00600
C2570       C  0.91012223  0.11920941  0.71307069    -0.12500
C2571       C  0.92262320  0.13866749  0.73466219     0.01600
C2572       C  0.90559688  0.15895467  0.75090015    -0.00700
C2573       C  0.87616798  0.15937826  0.74356719    -0.12500
C2574       C  0.86377458  0.14022849  0.72176605     0.01500
H2575       H  0.92363034  0.10367308  0.70150716     0.14500
H2576       H  0.86258201  0.17519019  0.75456965     0.14500
C2577       C  0.83385758  0.14382540  0.71434063     0.36100
C2578       C  0.95318934  0.13787057  0.73862213     0.36000
N2579       N  0.80995235  0.14699867  0.70821370    -0.44200
N2580       N  0.97773055  0.13731205  0.74156285    -0.44200
C2581       C  0.90051200  0.06903107  0.56066180    -0.00600
C2582       C  0.91191046  0.04467474  0.54642854    -0.12500
C2583       C  0.91471994  0.04334310  0.51364043     0.01600
C2584       C  0.90647801  0.06714516  0.49453815    -0.00700
C2585       C  0.89828577  0.09262731  0.50935986    -0.12500
C2586       C  0.89531461  0.09372997  0.54211250     0.01500
H2587       H  0.91589213  0.02560297  0.56058681     0.14500
H2588       H  0.89336207  0.11155246  0.49530973     0.14500
C2589       C  0.88563819  0.12011594  0.55600408     0.36100
C2590       C  0.92565520  0.01701968  0.50061728     0.36000
N2591       N  0.87820743  0.14163008  0.56657561    -0.44200
N2592       N  0.93438926  0.99588560  0.49028361    -0.44200
C2593       C  0.84051255  0.02762249  0.74523769    -0.00600
C2594       C  0.81462033  0.51500912  0.76030587    -0.12500
C2595       C  0.81178493  0.51242642  0.79300819     0.01600
C2596       C  0.83674035  0.02166930  0.81144788    -0.00700
C2597       C  0.86137978  0.03287736  0.79789984    -0.12500
C2598       C  0.86364178  0.03567158  0.76511423     0.01500
H2599       H  0.79654655  0.51006832  0.74517902     0.14500
H2600       H  0.87994087  0.03684329  0.81271010     0.14500
C2601       C  0.89024986  0.04629400  0.75295585     0.36100
C2602       C  0.78510302  0.50259353  0.80575008     0.36000
N2603       N  0.91171470  0.05468260  0.74350104    -0.44200
N2604       N  0.76371437  0.49492045  0.81610414    -0.44200
C2605       C  0.62275179  0.12345059  0.74934672    -0.00600
C2606       C  0.60781733  0.13637145  0.72380397    -0.12500
C2607       C  0.62070970  0.15654321  0.70331207     0.01600
C2608       C  0.64967295  0.16457251  0.70755048    -0.00700
C2609       C  0.66460491  0.15157846  0.73302573    -0.12500
C2610       C  0.65172228  0.13154934  0.75358752     0.01500
H2611       H  0.58580629  0.13051789  0.71948629     0.14500
H2612       H  0.68665561  0.15732563  0.73730862     0.14500
C2613       C  0.66910841  0.11985859  0.77893256     0.36100
C2614       C  0.60346054  0.16841618  0.67798827     0.36000
N2615       N  0.68309398  0.11053408  0.79923922    -0.44200
N2616       N  0.58954537  0.17793096  0.65773344    -0.44200
C2617       C  0.63551030  0.21517781  0.56295025    -0.00600
C2618       C  0.64365513  0.19068885  0.54619579    -0.12500
C2619       C  0.63881475  0.18876807  0.51373453     0.01600
C2620       C  0.62557486  0.21181166  0.49761658    -0.00700
C2621       C  0.61480974  0.23498372  0.51501664    -0.12500
C2622       C  0.61933179  0.23660470  0.54760358     0.01500
H2623       H  0.65602446  0.17423244  0.55805085     0.14500
H2624       H  0.60305409  0.25200545  0.50312470     0.14500
C2625       C  0.60872973  0.26125267  0.56430175     0.36100
C2626       C  0.64935609  0.16382794  0.49747301     0.36000
N2627       N  0.59991946  0.28082999  0.57775074    -0.44200
N2628       N  0.65769327  0.14380806  0.48444533    -0.44200
C2629       C  0.69431092  0.25332545  0.74814371    -0.00600
C2630       C  0.67025900  0.24338566  0.76434766    -0.12500
C2631       C  0.66809493  0.24637149  0.79696911     0.01600
C2632       C  0.69005002  0.26004265  0.81376634    -0.00700
C2633       C  0.71541026  0.26703400  0.79824004    -0.12500
C2634       C  0.71778873  0.26372553  0.76559264     0.01500
H2635       H  0.65277227  0.23371642  0.75142458     0.14500
H2636       H  0.73225944  0.27779294  0.81118003     0.14500
C2637       C  0.74364439  0.27313118  0.75061438     0.36100
C2638       C  0.64197231  0.23778472  0.81198539     0.36000
N2639       N  0.76448469  0.28064715  0.73884782    -0.44200
N2640       N  0.62099292  0.23061986  0.82369651    -0.44200
C2641       C  0.79022991  0.12170227  0.59781805    -0.00600
C2642       C  0.76262791  0.11890363  0.58538447    -0.12500
C2643       C  0.74339699  0.14145564  0.58820655     0.01600
C2644       C  0.75281220  0.16692989  0.60201542    -0.00700
C2645       C  0.78149534  0.17097032  0.60965937    -0.12500
C2646       C  0.80052103  0.14849057  0.60738065     0.01500
H2647       H  0.75495610  0.09810185  0.57800883     0.14500
H2648       H  0.78833757  0.19047625  0.62103788     0.14500
C2649       C  0.82907103  0.15213833  0.61988040     0.36100
C2650       C  0.71380617  0.13680714  0.58043753     0.36000
N2651       N  0.85173491  0.15497044  0.63037718    -0.44200
N2652       N  0.69014745  0.13249234  0.57435168    -0.44200
C2653       C  0.99344563  0.27621347  0.50120399    -0.00600
C2654       C  0.49291475  0.24644309  0.49591899    -0.12500
C2655       C  0.51209172  0.23335831  0.47482822     0.01600
C2656       C  0.53289523  0.24984769  0.45877647    -0.00700
C2657       C  0.53420536  0.27924535  0.46567566    -0.12500
C2658       C  0.00999169  0.29223637  0.47941251     0.01500
H2659       H  0.47671494  0.23350736  0.50702440     0.14500
H2660       H  0.55060469  0.29213806  0.45487686     0.14500
C2661       C  0.00871705  0.32308809  0.47788616     0.36100
C2662       C  0.50964073  0.20286958  0.47025270     0.36000
N2663       N  0.00796220  0.34782759  0.47660132    -0.44200
N2664       N  0.50767514  0.17838743  0.46697362    -0.44200
C2665       C  0.89892682  0.31979597  0.46343676    -0.00600
C2666       C  0.90984654  0.29828941  0.44387379    -0.12500
C2667       C  0.90406631  0.29842107  0.41147749     0.01600
C2668       C  0.88646284  0.32003589  0.39837938    -0.00700
C2669       C  0.87737427  0.34272389  0.41749446    -0.12500
C2670       C  0.88366070  0.34292831  0.44980818     0.01500
H2671       H  0.92278783  0.28116549  0.45396880     0.14500
H2672       H  0.86359651  0.35924817  0.40753440     0.14500
C2673       C  0.87264527  0.36612351  0.46859291     0.36100
C2674       C  0.91473265  0.27500582  0.39279816     0.36000
N2675       N  0.86388798  0.38475491  0.48361112    -0.44200
N2676       N  0.92354819  0.25632119  0.37791050    -0.44200
C2677       C  0.94159435  0.25692761  0.64753810    -0.00600
C2678       C  0.96584899  0.26396912  0.66539830    -0.12500
C2679       C  0.96570264  0.26186067  0.69825834     0.01600
C2680       C  0.94062104  0.25342317  0.71372223    -0.00700
C2681       C  0.91754097  0.24336552  0.69574840    -0.12500
C2682       C  0.91819912  0.24431572  0.66273806     0.01500
H2683       H  0.98404451  0.27350044  0.65376626     0.14500
H2684       H  0.89924856  0.23418731  0.70753096     0.14500
C2685       C  0.89418743  0.23345172  0.64506057     0.36100
C2686       C  0.99131381  0.26906802  0.71549986     0.36000
N2687       N  0.87511504  0.22419511  0.63103072    -0.44200
N2688       N  0.01213916  0.27444873  0.72897281    -0.44200
C2689       C  0.83876391  0.28246083  0.59937173    -0.00600
C2690       C  0.82465686  0.29871996  0.62255481    -0.12500
C2691       C  0.79822956  0.29026622  0.63475710     0.01600
C2692       C  0.78568559  0.26466933  0.62451640    -0.00700
C2693       C  0.79913985  0.24896640  0.60063904    -0.12500
C2694       C  0.82543679  0.25739484  0.58819560     0.01500
H2695       H  0.83423293  0.31830142  0.63110011     0.14500
H2696       H  0.78866232  0.23040358  0.59094092     0.14500
C2697       C  0.83846986  0.23934409  0.56477528     0.36100
C2698       C  0.78409964  0.30849969  0.65715175     0.36000
N2699       N  0.84882724  0.22470801  0.54610480    -0.44200
N2700       N  0.77272837  0.32333352  0.67487960    -0.44200
C2701       C  0.89014654  0.40871695  0.58480407    -0.00600
C2702       C  0.87666193  0.41233004  0.61419842    -0.12500
C2703       C  0.87006671  0.43960741  0.62577312     0.01600
C2704       C  0.87615345  0.46405272  0.60749924    -0.00700
C2705       C  0.88842300  0.46055994  0.57760036    -0.12500
C2706       C  0.89580851  0.43336136  0.56633177     0.01500
H2707       H  0.87232760  0.39382977  0.62898178     0.14500
H2708       H  0.89285773  0.47930982  0.56321489     0.14500
C2709       C  0.90964626  0.43158145  0.53609161     0.36100
C2710       C  0.85662682  0.44197723  0.65620477     0.36000
N2711       N  0.92089593  0.43024816  0.51193168    -0.44200
N2712       N  0.84586558  0.44405021  0.68057606    -0.44200
C2713       C  0.53640255  0.00059200  0.49743714    -0.00600
C2714       C  0.53186155  0.03042453  0.49807950    -0.12500
C2715       C  0.51189924  0.04428393  0.47788517     0.01600
C2716       C  0.99597876  0.02840909  0.45494439    -0.00700
C2717       C  0.00357462  0.99942768  0.45107232    -0.12500
C2718       C  0.52063040  0.48841133  0.47763100     0.01500
H2719       H  0.54422311  0.04328304  0.51438379     0.14500
H2720       H  0.99605756  0.49345858  0.43139656     0.14500
C2721       C  0.52087628  0.45751401  0.47802341     0.36100
C2722       C  0.50876670  0.07487574  0.48101736     0.36000
N2723       N  0.52107059  0.43274443  0.47809878    -0.44200
N2724       N  0.50629520  0.09938650  0.48376960    -0.44200
C2725       C  0.58686078  0.03099472  0.70704580    -0.00600
C2726       C  0.56208128  0.02210459  0.69100823    -0.12500
C2727       C  0.56230781  0.01735325  0.65845888     0.01600
C2728       C  0.58750899  0.02180817  0.64139613    -0.00700
C2729       C  0.61009399  0.53623825  0.65883516    -0.12500
C2730       C  0.60926007  0.54088176  0.69137092     0.01500
H2731       H  0.54272440  0.01791070  0.70401985     0.14500
H2732       H  0.62959670  0.54054478  0.64609081     0.14500
C2733       C  0.63363762  0.55456864  0.70573554     0.36100
C2734       C  0.53694764  0.00653129  0.64316907     0.36000
N2735       N  0.65328712  0.56559429  0.71690102    -0.44200
N2736       N  0.51656390  0.99805438  0.63089694    -0.44200
C2737       C  0.62749210  0.46479615  0.45884813    -0.00600
C2738       C  0.61048911  0.48428314  0.44149875    -0.12500
C2739       C  0.61068183  0.48446673  0.40846168     0.01600
C2740       C  0.62867091  0.46551721  0.39227337    -0.00700
C2741       C  0.64309923  0.44395817  0.40951476    -0.12500
C2742       C  0.64280659  0.44356830  0.44261286     0.01500
H2743       H  0.59432872  0.99518719  0.45266651     0.14500
H2744       H  0.65743600  0.42959099  0.39731404     0.14500
C2745       C  0.66020159  0.42275123  0.45936524     0.36100
C2746       C  0.59101762  0.00200805  0.39066586     0.36000
N2747       N  0.67410650  0.40619121  0.47301910    -0.44200
N2748       N  0.57665612  0.01860801  0.37767906    -0.44200
C2749       C  0.54272850  0.40567859  0.60760893    -0.00600
C2750       C  0.51610170  0.41884096  0.60998616    -0.12500
C2751       C  0.99104624  0.40248205  0.61227044     0.01600
C2752       C  0.99358949  0.37253115  0.61047567    -0.00700
C2753       C  0.52090806  0.35924700  0.61301674    -0.12500
C2754       C  0.54543431  0.37592756  0.61247766     0.01500
H2755       H  0.51420798  0.44187746  0.60747336     0.14500
H2756       H  0.52266832  0.33608698  0.61260285     0.14500
C2757       C  0.57275861  0.36181146  0.61478816     0.36100
C2758       C  0.96399736  0.41663449  0.61606605     0.36000
N2759       N  0.59429102  0.34988692  0.61763719    -0.44200
N2760       N  0.94284863  0.42872071  0.62031407    -0.44200
C2761       C  0.69471252  0.49995854  0.59912993    -0.00600
C2762       C  0.71572852  0.50558047  0.57656037    -0.12500
C2763       C  0.74144907  0.01510323  0.58385018     0.01600
C2764       C  0.74945392  0.01676168  0.61625367    -0.00700
C2765       C  0.72887493  0.01025839  0.63888838    -0.12500
C2766       C  0.70263588  0.50213832  0.63164835     0.01500
H2767       H  0.71036509  0.50393638  0.55164005     0.14500
H2768       H  0.73454343  0.01161489  0.66376544     0.14500
C2769       C  0.68276701  0.49642061  0.65672916     0.36100
C2770       C  0.76106902  0.02242202  0.55905640     0.36000
N2771       N  0.66697244  0.49158537  0.67687871    -0.44200
N2772       N  0.77665261  0.02822363  0.53901419    -0.44200
C2773       C  0.64749247  0.37488833  0.58343483    -0.00600
C2774       C  0.65963398  0.37178973  0.61395690    -0.12500
C2775       C  0.66691839  0.34480308  0.62638856     0.01600
C2776       C  0.66292582  0.32026426  0.60789635    -0.00700
C2777       C  0.65273706  0.32351653  0.57666764    -0.12500
C2778       C  0.64421922  0.35025827  0.56465830     0.01500
H2779       H  0.66230571  0.39037965  0.62885889     0.14500
H2780       H  0.65071935  0.30487429  0.56174035     0.14500
C2781       C  0.63156932  0.35151246  0.53342036     0.36100
C2782       C  0.67929282  0.34296091  0.65769442     0.36000
N2783       N  0.62114130  0.35237019  0.50853181    -0.44200
N2784       N  0.68936020  0.34147490  0.68272530    -0.44200
O2785       O  0.56686627  0.96129749  0.51482896    -0.82300
C2786       C  0.66382707  0.99035865  0.58688068     0.97100
O2787       O  0.65411501  0.99516482  0.55915550    -0.71400
O2788       O  0.62161012  0.98557700  0.50610063    -0.75000
Al2789     Al  0.61347569  0.99666794  0.54896854     1.49000
C2790       C  0.62383090  0.96169532  0.49219047     0.92300
O2791       O  0.61400216  0.90292831  0.55592575    -0.81200
O2792       O  0.58844326  0.92341831  0.60853516    -0.74800
Al2793     Al  0.59209372  0.93503343  0.53796245     1.90100
O2794       O  0.64352831  0.92363865  0.58909480    -0.73800
O2795       O  0.59123852  0.97784725  0.61778915    -0.73700
O2796       O  0.64854340  0.97715608  0.60638553    -0.79300
O2797       O  0.60640016  0.51646086  0.59152258    -0.77600
O2798       O  0.60776870  0.96110238  0.56265586    -1.13700
O2799       O  0.57570009  0.50613079  0.53828157    -0.72900
C2800       C  0.55991486  0.98740784  0.51790898     0.97800
C2801       C  0.63519471  0.90152584  0.57493330     0.94200
Al2802     Al  0.61719266  0.95150676  0.60207519     1.55600
O2803       O  0.62043110  0.93853572  0.50704638    -0.77500
C2804       C  0.59357071  0.00434859  0.61381483     0.98400
C2805       C  0.56527318  0.92014588  0.59397547     0.93300
O2806       O  0.56182798  0.92931104  0.56616284    -0.82800
O2807       O  0.96447012  0.81698518  0.51766368    -0.82300
C2808       C  0.86709293  0.79111878  0.58831440     0.97100
O2809       O  0.87724073  0.78518337  0.56148090    -0.71400
O2810       O  0.90852719  0.79562850  0.50933204    -0.75000
Al2811     Al  0.91741728  0.78302931  0.55188488     1.49000
C2812       C  0.90612583  0.82021824  0.49651521     0.92300
O2813       O  0.92195790  0.87734246  0.55903102    -0.81200
O2814       O  0.94595121  0.85441816  0.61169289    -0.74800
Al2815     Al  0.94124236  0.84386805  0.54143818     1.90100
O2816       O  0.89053558  0.85840758  0.59062906    -0.73800
O2817       O  0.93849002  0.80054625  0.62199734    -0.73700
O2818       O  0.88189422  0.80506971  0.60780311    -0.79300
O2819       O  0.92533094  0.76424224  0.59245947    -0.77600
O2820       O  0.92435342  0.81832174  0.56581049    -1.13700
O2821       O  0.95659552  0.77542981  0.53964504    -0.72900
C2822       C  0.97076986  0.79067986  0.52051409     0.97800
C2823       C  0.90036090  0.88006842  0.57667309     0.94200
Al2824     Al  0.91493457  0.82853786  0.60471319     1.55600
O2825       O  0.91215846  0.84260889  0.51139159    -0.77500
C2826       C  0.93562410  0.77415226  0.61799967     0.98400
C2827       C  0.96928336  0.85624520  0.59738016     0.93300
O2828       O  0.97200689  0.84690427  0.56973988    -0.82800
O2829       O  0.72138885  0.68209074  0.64026810    -0.82300
C2830       C  0.66982213  0.78924564  0.62029449     0.97100
O2831       O  0.68223156  0.77344701  0.60086281    -0.71400
O2832       O  0.73486651  0.76428596  0.62016217    -0.75000
Al2833     Al  0.70517382  0.74042311  0.60544881     1.49000
C2834       C  0.75629421  0.75316675  0.63372519     0.92300
O2835       O  0.71771533  0.74088963  0.70019797    -0.81200
O2836       O  0.65018532  0.70023274  0.66871296    -0.74800
Al2837     Al  0.71882407  0.71250812  0.66913014     1.90100
O2838       O  0.67104734  0.74688363  0.69959122    -0.73800
O2839       O  0.64115674  0.73226785  0.61587803    -0.73700
O2840       O  0.66363083  0.77966959  0.64744644    -0.79300
O2841       O  0.67765694  0.71725560  0.58816416    -0.77600
O2842       O  0.69434648  0.73095985  0.64420491    -1.13700
O2843       O  0.73050999  0.70961562  0.59948376    -0.72900
C2844       C  0.73207365  0.68591907  0.61343001     0.97800
C2845       C  0.69492118  0.74754185  0.71393328     0.94200
Al2846     Al  0.65931535  0.73927099  0.65692163     1.55600
O2847       O  0.75322029  0.73143855  0.65182589    -0.77500
C2848       C  0.65132500  0.72065371  0.59131385     0.98400
C2849       C  0.66414865  0.68496681  0.68843263     0.93300
O2850       O  0.69062749  0.68965082  0.69206860    -0.82800
O2851       O  0.81247462  0.59599490  0.64363691    -0.82300
C2852       C  0.86641808  0.99392844  0.61620988     0.97100
O2853       O  0.85613645  0.50964151  0.59817359    -0.71400
O2854       O  0.80217106  0.51697047  0.61378255    -0.75000
Al2855     Al  0.83210985  0.54234562  0.60347988     1.49000
C2856       C  0.78040173  0.52574235  0.62818142     0.92300
O2857       O  0.81907011  0.53251750  0.69730639    -0.81200
O2858       O  0.88437304  0.58014732  0.67115995    -0.74800
Al2859     Al  0.81641908  0.56359971  0.66913602     1.90100
O2860       O  0.86582033  0.53090677  0.69907248    -0.73800
O2861       O  0.89564973  0.55094116  0.61719978    -0.73700
O2862       O  0.87417575  0.50183553  0.64549509    -0.79300
O2863       O  0.85946560  0.56768981  0.58948616    -0.77600
O2864       O  0.84187514  0.54883167  0.64347556    -1.13700
O2865       O  0.80643320  0.57331438  0.59888995    -0.72900
C2866       C  0.80464950  0.59557507  0.61516428     0.97800
C2867       C  0.84195541  0.52790487  0.71242234     0.94200
Al2868     Al  0.87719633  0.54135365  0.65707795     1.55600
O2869       O  0.78307702  0.54493658  0.64926929    -0.77500
C2870       C  0.88571643  0.56415196  0.59316214     0.98400
C2871       C  0.86930720  0.59314520  0.69137995     0.93300
O2872       O  0.84336959  0.58602967  0.69440466    -0.82800
O2873       O  0.80941249  0.93143126  0.89375237    -0.82300
C2874       C  0.91041309  0.99100026  0.86760449     0.97100
O2875       O  0.89407472  0.97841396  0.84849964    -0.71400
O2876       O  0.89004379  0.92516716  0.86715562    -0.75000
Al2877     Al  0.86294730  0.95306940  0.85467044     1.49000
C2878       C  0.88257543  0.90318669  0.88222218     0.92300
O2879       O  0.87108017  0.94182534  0.94923649    -0.81200
O2880       O  0.81894081  0.50308108  0.91921245    -0.74800
Al2881     Al  0.84112619  0.93771924  0.92021213     1.90100
O2882       O  0.87140426  0.98874390  0.94930225    -0.73800
O2883       O  0.85017016  0.51379450  0.86687194    -0.73700
O2884       O  0.90205549  0.99619211  0.89546464    -0.79300
O2885       O  0.83618747  0.97938238  0.83953399    -0.77600
O2886       O  0.85553591  0.96323287  0.89399880    -1.13700
O2887       O  0.83393818  0.92529773  0.85048225    -0.72900
C2888       C  0.81166309  0.92194893  0.86615482     0.97800
C2889       C  0.87430689  0.96499855  0.96373326     0.94200
Al2890     Al  0.86209975  0.99898057  0.90615206     1.55600
O2891       O  0.86237200  0.90472382  0.90221446    -0.77500
C2892       C  0.84067668  0.00575356  0.84107366     0.98400
C2893       C  0.80980760  0.99135297  0.93904639     0.93300
O2894       O  0.81684339  0.96518580  0.94349030    -0.82800
O2895       O  0.71780635  0.85343736  0.89018714    -0.82300
C2896       C  0.61599049  0.79464048  0.87043148     0.97100
O2897       O  0.62950903  0.80978412  0.85107820    -0.71400
O2898       O  0.63658696  0.86255065  0.86967088    -0.75000
Al2899     Al  0.66145078  0.83423374  0.85464109     1.49000
C2900       C  0.64638108  0.88427878  0.88333417     0.92300
O2901       O  0.66089701  0.84399523  0.95076166    -0.81200
O2902       O  0.70651350  0.78072224  0.91649914    -0.74800
Al2903     Al  0.68851434  0.84821762  0.91888013     1.90100
O2904       O  0.65929156  0.79709199  0.94843597    -0.73800
O2905       O  0.67435884  0.77026435  0.86513189    -0.73700
O2906       O  0.62684969  0.78871880  0.89717226    -0.79300
O2907       O  0.68554876  0.80773873  0.83629167    -0.77600
O2908       O  0.67203534  0.82315051  0.89339036    -1.13700
O2909       O  0.69118002  0.86100481  0.84803485    -0.72900
C2910       C  0.71487044  0.86179601  0.86199937     0.97800
C2911       C  0.65764947  0.81996070  0.96416209     0.94200
Al2912     Al  0.66694155  0.78718437  0.90580263     1.55600
O2913       O  0.66748511  0.88168021  0.90228206    -0.77500
C2914       C  0.68447855  0.78115814  0.84021530     0.98400
C2915       C  0.72058397  0.79520305  0.93639633     0.93300
O2916       O  0.71365838  0.82113656  0.94076212    -0.82800
O2917       O  0.58177647  0.59283118  0.76654995    -0.82300
C2918       C  0.60993021  0.99627106  0.83706794     0.97100
O2919       O  0.61322278  0.50506800  0.81194377    -0.71400
O2920       O  0.60663179  0.53777936  0.75953768    -0.75000
Al2921     Al  0.61559290  0.54553637  0.80277617     1.49000
C2922       C  0.58382423  0.53554395  0.74365469     0.92300
O2923       O  0.52184723  0.54501166  0.80373705    -0.81200
O2924       O  0.54135260  0.57166541  0.85799701    -0.74800
Al2925     Al  0.55437371  0.56723548  0.78761199     1.90100
O2926       O  0.54146929  0.51652295  0.83938373    -0.73800
O2927       O  0.59507606  0.56827818  0.86988268    -0.73700
O2928       O  0.59451053  0.51044470  0.85866967    -0.79300
O2929       O  0.63234070  0.55275859  0.84414318    -0.77600
O2930       O  0.57962564  0.55170691  0.81422870    -1.13700
O2931       O  0.62210280  0.58503504  0.79186417    -0.72900
C2932       C  0.60782355  0.59928427  0.77148011     0.97800
C2933       C  0.51969539  0.52508353  0.82435053     0.94200
Al2934     Al  0.56917009  0.54253872  0.85317523     1.55600
O2935       O  0.56001024  0.53883597  0.75674658    -0.77500
C2936       C  0.62145284  0.56426208  0.86825469     0.98400
C2937       C  0.53579663  0.59395516  0.84242487     0.93300
O2938       O  0.54562763  0.59778483  0.81511988    -0.82800
O2939       O  0.94589658  0.68093166  0.78491068    -0.82300
C2940       C  0.92320039  0.79273297  0.83626727     0.97100
O2941       O  0.90607795  0.77672259  0.82087629    -0.71400
O2942       O  0.92262879  0.75579134  0.76411873    -0.75000
Al2943     Al  0.90878519  0.73845496  0.80208625     1.49000
C2944       C  0.94265363  0.74674792  0.74684588     0.92300
O2945       O  0.99877922  0.74205999  0.80281173    -0.81200
O2946       O  0.95637040  0.70502237  0.87179248    -0.74800
Al2947     Al  0.97006205  0.71303195  0.79617037     1.90100
O2948       O  0.99094747  0.74725630  0.85305120    -0.73800
O2949       O  0.91500238  0.74296565  0.87308215    -0.73700
O2950       O  0.94690032  0.78272249  0.84608943    -0.79300
O2951       O  0.89008329  0.72027878  0.83764644    -0.77600
O2952       O  0.94348680  0.73167671  0.81794540    -1.13700
O2953       O  0.90474904  0.70272771  0.78017123    -0.72900
C2954       C  0.92031691  0.68114025  0.77491663     0.97800
C2955       C  0.50775693  0.74939557  0.82882654     0.94200
Al2956     Al  0.95164080  0.74343326  0.85729426     1.55600
O2957       O  0.96172502  0.73033356  0.75745591    -0.77500
C2958       C  0.89413231  0.72793026  0.86586411     0.98400
C2959       C  0.97271408  0.68725026  0.85861507     0.93300
O2960       O  0.98281151  0.69158748  0.83143632    -0.82800
O2961       O  0.81813781  0.71869780  0.01417868    -0.82300
C2962       C  0.91128131  0.74299606  0.09118546     0.97100
O2963       O  0.90236017  0.74880865  0.06349898    -0.71400
O2964       O  0.87169797  0.74277713  0.00962609    -0.75000
Al2965     Al  0.86263117  0.75215752  0.05258092     1.49000
C2966       C  0.87447892  0.71958171  0.99462927     0.92300
O2967       O  0.86246496  0.65801804  0.05646843    -0.81200
O2968       O  0.83262314  0.67872771  0.10792724    -0.74800
Al2969     Al  0.84213980  0.69122518  0.03766767     1.90100
O2970       O  0.88925376  0.67745760  0.09313141    -0.73800
O2971       O  0.83686209  0.73233700  0.11867081    -0.73700
O2972       O  0.89520891  0.73069928  0.11079354    -0.79300
O2973       O  0.85397498  0.76935188  0.09339277    -0.77600
O2974       O  0.85613931  0.71631403  0.06458159    -1.13700
O2975       O  0.82356081  0.75890255  0.03990237    -0.72900
C2976       C  0.81048156  0.74446819  0.01902582     0.97800
C2977       C  0.88131131  0.65565965  0.07829613     0.94200
Al2978     Al  0.86298446  0.70583215  0.10432028     1.55600
O2979       O  0.87240247  0.69593406  0.00902384    -0.77500
C2980       C  0.84081342  0.75871663  0.11671538     0.98400
C2981       C  0.81061960  0.67661480  0.09090250     0.93300
O2982       O  0.81042621  0.68507777  0.06266812    -0.82800
O2983       O  0.56018125  0.85000634  0.13259722    -0.82300
C2984       C  0.61110101  0.74120176  0.12154764     0.97100
O2985       O  0.59950685  0.75666558  0.10065695    -0.71400
O2986       O  0.54638165  0.76782081  0.11631951    -0.75000
Al2987     Al  0.57717854  0.79048862  0.10227209     1.49000
C2988       C  0.52508723  0.77900731  0.12969087     0.92300
O2989       O  0.56180400  0.79362687  0.19680417    -0.81200
O2990       O  0.63107807  0.83052584  0.16798060    -0.74800
Al2991     Al  0.56205564  0.82057527  0.16367588     1.90100
O2992       O  0.60804416  0.78521928  0.19873753    -0.73800
O2993       O  0.64090455  0.79797937  0.11713351    -0.73700
O2994       O  0.61673801  0.75158232  0.14842725    -0.79300
O2995       O  0.60603179  0.81281464  0.08566877    -0.77600
O2996       O  0.58690495  0.80079052  0.14130879    -1.13700
O2997       O  0.55229826  0.82122869  0.09295488    -0.72900
C2998       C  0.54980440  0.84522328  0.10557737     0.97800
C2999       C  0.58391723  0.78616153  0.21190556     0.94200
Al3000     Al  0.62131383  0.79187685  0.15676415     1.55600
O3001       O  0.52840654  0.80126496  0.14649141    -0.77500
C3002       C  0.63212010  0.80956099  0.09161261     0.98400
C3003       C  0.61654395  0.84671620  0.18554503     0.93300
O3004       O  0.58974431  0.84360905  0.18635796    -0.82800
O3005       O  0.70738715  0.56626959  0.01529151    -0.82300
C3006       C  0.61550845  0.53835080  0.09258589     0.97100
O3007       O  0.62527088  0.53192680  0.06571690    -0.71400
O3008       O  0.65436145  0.54124294  0.01162450    -0.75000
Al3009     Al  0.66504376  0.53153444  0.05492270     1.49000
C3010       C  0.64917624  0.56507984  0.99798251     0.92300
O3011       O  0.66285719  0.62616163  0.05751201    -0.81200
O3012       O  0.69198596  0.60666710  0.10878003    -0.74800
Al3013     Al  0.68330543  0.59323237  0.03950632     1.90100
O3014       O  0.63508731  0.60623089  0.09252893    -0.73800
O3015       O  0.68883882  0.55314268  0.12198987    -0.73700
O3016       O  0.63043066  0.55300902  0.11153302    -0.79300
O3017       O  0.67523813  0.51498767  0.09612008    -0.77600
O3018       O  0.67006656  0.56774102  0.06658364    -1.13700
O3019       O  0.70414707  0.52649865  0.04239159    -0.72900
C3020       C  0.71601076  0.54074660  0.02061355     0.97800
C3021       C  0.64318143  0.62813640  0.07786772     0.94200
Al3022     Al  0.66222742  0.57860759  0.10558325     1.55600
O3023       O  0.65229602  0.58815560  0.01260077    -0.77500
C3024       C  0.68689555  0.52653141  0.12003708     0.98400
C3025       C  0.71350017  0.61099533  0.09177671     0.93300
O3026       O  0.71545023  0.60048045  0.06458460    -0.82800
O3027       O  0.97014938  0.93235953  0.13699537    -0.82300
C3028       C  0.91530191  0.54166074  0.12125049     0.97100
O3029       O  0.92927957  0.52627782  0.10276068    -0.71400
O3030       O  0.98177794  0.51393585  0.12027262    -0.75000
Al3031     Al  0.95623967  0.99139158  0.10236769     1.49000
C3032       C  0.50253489  0.50259162  0.13394318     0.92300
O3033       O  0.97193811  0.99153326  0.19639253    -0.81200
O3034       O  0.90135222  0.95440197  0.16804140    -0.74800
Al3035     Al  0.97041493  0.96292608  0.16556326     1.90100
O3036       O  0.91692271  0.49944215  0.20071190    -0.73800
O3037       O  0.89211179  0.98614751  0.11576310    -0.73700
O3038       O  0.90848627  0.53208208  0.14824813    -0.79300
O3039       O  0.92683564  0.96992859  0.08606604    -0.77600
O3040       O  0.94610556  0.98262676  0.14150359    -1.13700
O3041       O  0.97950851  0.95878199  0.09548008    -0.72900
C3042       C  0.97875484  0.93478351  0.10903194     0.97800
C3043       C  0.94120719  0.49981784  0.21417149     0.94200
Al3044     Al  0.91196453  0.99276860  0.15555465     1.55600
O3045       O  0.50468288  0.98026746  0.14741675    -0.77500
C3046       C  0.90078065  0.97377034  0.09102171     0.98400
C3047       C  0.91511275  0.93851210  0.18725226     0.93300
O3048       O  0.94188404  0.94178550  0.18984388    -0.82800
O3049       O  0.97025834  0.60451226  0.38779256    -0.82300
C3050       C  0.86739707  0.54469462  0.37326045     0.97100
O3051       O  0.87948597  0.56091531  0.35375040    -0.71400
O3052       O  0.88785009  0.61485645  0.37098363    -0.75000
Al3053     Al  0.91169738  0.58540093  0.35536519     1.49000
C3054       C  0.89869113  0.63653683  0.38394762     0.92300
O3055       O  0.91460934  0.59576502  0.45045928    -0.81200
O3056       O  0.95966566  0.53222305  0.41619832    -0.74800
Al3057     Al  0.94146932  0.59967547  0.41786863     1.90100
O3058       O  0.91305854  0.54864343  0.44968220    -0.73800
O3059       O  0.92620003  0.52104615  0.36600710    -0.73700
O3060       O  0.87927026  0.53872810  0.39947100    -0.79300
O3061       O  0.93441427  0.55863275  0.33607811    -0.77600
O3062       O  0.92393355  0.57437269  0.39356861    -1.13700
O3063       O  0.94156257  0.61163464  0.34713230    -0.72900
C3064       C  0.96572442  0.61336616  0.36001576     0.97800
C3065       C  0.91150180  0.57201691  0.46458597     0.94200
Al3066     Al  0.91967908  0.53825783  0.40672152     1.55600
O3067       O  0.92042708  0.63344670  0.40186650    -0.77500
C3068       C  0.93471826  0.53208575  0.34044070     0.98400
C3069       C  0.97383329  0.54709487  0.43565179     0.93300
O3070       O  0.96684859  0.57299774  0.43943225    -0.82800
O3071       O  0.55966049  0.68344077  0.38977182    -0.82300
C3072       C  0.66199548  0.74176800  0.36937174     0.97100
O3073       O  0.64728302  0.72774082  0.34993793    -0.71400
O3074       O  0.64121672  0.67435185  0.36802452    -0.75000
Al3075     Al  0.61545288  0.70313768  0.35375621     1.49000
C3076       C  0.63205218  0.65239630  0.38196143     0.92300
O3077       O  0.61950132  0.69114461  0.44808596    -0.81200
O3078       O  0.57161369  0.75523527  0.41738108    -0.74800
Al3079     Al  0.59037280  0.68779648  0.41777888     1.90100
O3080       O  0.62036159  0.73830547  0.44843962    -0.73800
O3081       O  0.60227014  0.76692815  0.36487316    -0.73700
O3082       O  0.65156232  0.74822339  0.39597119    -0.79300
O3083       O  0.59058546  0.72975336  0.33609829    -0.77600
O3084       O  0.60593786  0.71353338  0.39262753    -1.13700
O3085       O  0.58549135  0.67644384  0.34756329    -0.72900
C3086       C  0.56197499  0.67566100  0.36150410     0.97800
C3087       C  0.62350778  0.71437386  0.46247351     0.94200
Al3088     Al  0.61121203  0.74929976  0.40556789     1.55600
O3089       O  0.61084942  0.65473510  0.40032755    -0.77500
C3090       C  0.59168389  0.75627163  0.33991027     0.98400
C3091       C  0.55850898  0.73991961  0.43739693     0.93300
O3092       O  0.56616721  0.71406597  0.44106392    -0.82800
O3093       O  0.83277728  0.84700448  0.26721387    -0.82300
C3094       C  0.86348463  0.75078718  0.34047257     0.97100
O3095       O  0.86829567  0.76070907  0.31302931    -0.71400
O3096       O  0.85977566  0.79287839  0.26014079    -0.75000
Al3097     Al  0.86889141  0.80131969  0.30334030     1.49000
C3098       C  0.83662275  0.78924043  0.24525960     0.92300
O3099       O  0.77568094  0.79659829  0.30593885    -0.81200
O3100       O  0.79434864  0.82460964  0.35966449    -0.74800
Al3101     Al  0.80675208  0.82027340  0.28921157     1.90100
O3102       O  0.79656829  0.76946102  0.34214046    -0.73800
O3103       O  0.84835548  0.82423251  0.37039931    -0.73700
O3104       O  0.85038756  0.76604287  0.36018385    -0.79300
O3105       O  0.88575342  0.80980625  0.34417727    -0.77600
O3106       O  0.83290708  0.80608096  0.31548130    -1.13700
O3107       O  0.87351919  0.84086108  0.29215015    -0.72900
C3108       C  0.85861724  0.85446209  0.27183950     0.97800
C3109       C  0.77453696  0.77671799  0.32670061     0.94200
Al3110     Al  0.82344712  0.79691885  0.35477690     1.55600
O3111       O  0.81314710  0.79176887  0.25911788    -0.77500
C3112       C  0.87482971  0.82135085  0.36824916     0.98400
C3113       C  0.78744555  0.84641186  0.34393109     0.93300
O3114       O  0.79692167  0.85065082  0.31652859    -0.82800
O3115       O  0.69288760  0.93115811  0.28090304    -0.82300
C3116       C  0.67488645  0.54243163  0.33773209     0.97100
O3117       O  0.65735000  0.52696054  0.32246694    -0.71400
O3118       O  0.67444839  0.50769237  0.26575428    -0.75000
Al3119     Al  0.65724566  0.98845282  0.30120184     1.49000
C3120       C  0.69539793  0.49992386  0.24905886     0.92300
O3121       O  0.74845139  0.98872914  0.30379149    -0.81200
O3122       O  0.70387200  0.95334589  0.37064788    -0.74800
Al3123     Al  0.71797161  0.96181851  0.29482431     1.90100
O3124       O  0.73893587  0.99508972  0.35318707    -0.73800
O3125       O  0.66233520  0.99133133  0.37187112    -0.73700
O3126       O  0.69856557  0.53210327  0.34710200    -0.79300
O3127       O  0.63869686  0.96835697  0.33560391    -0.77600
O3128       O  0.69177547  0.98066156  0.31694275    -1.13700
O3129       O  0.65279924  0.95451218  0.27727262    -0.72900
C3130       C  0.66730271  0.93257901  0.27116649     0.97800
C3131       C  0.75876759  0.49589823  0.33376218     0.94200
Al3132     Al  0.69963474  0.99169178  0.35659206     1.55600
O3133       O  0.71103914  0.98188993  0.25717046    -0.77500
C3134       C  0.64264465  0.97484742  0.36422151     0.98400
C3135       C  0.71918295  0.93497958  0.35702801     0.93300
O3136       O  0.72828643  0.93838812  0.32923438    -0.82800
C3137       C  0.76628560  0.86564988  0.35701704    -0.00600
C3138       C  0.77506752  0.88719248  0.37763006    -0.12500
C3139       C  0.75604102  0.90897207  0.38566349     0.01600
C3140       C  0.72832476  0.90887209  0.37269994    -0.00700
C3141       C  0.71814777  0.88421285  0.35795455    -0.12500
C3142       C  0.73728473  0.86312371  0.34859252     0.01500
H3143       H  0.79721325  0.88836953  0.38506112     0.14500
H3144       H  0.69666538  0.88418287  0.34817883     0.14500
C3145       C  0.72714919  0.84132291  0.32730333     0.36100
C3146       C  0.76671186  0.93384602  0.40189197     0.36000
N3147       N  0.71842696  0.82449298  0.30983166    -0.44200
N3148       N  0.77513934  0.95395699  0.41466050    -0.44200
C3149       C  0.74655422  0.76540508  0.33715100    -0.00600
C3150       C  0.73988762  0.76698474  0.36950078    -0.12500
C3151       C  0.71267927  0.75987365  0.38072405     0.01600
C3152       C  0.69138063  0.75043415  0.35942878    -0.00700
C3153       C  0.69847987  0.74836406  0.32706745    -0.12500
C3154       C  0.72557215  0.75582443  0.31592604     0.01500
H3155       H  0.75582756  0.77470373  0.38605915     0.14500
H3156       H  0.68269135  0.74109885  0.31010283     0.14500
C3157       C  0.73164982  0.75289321  0.28274501     0.36100
C3158       C  0.70742839  0.76241474  0.41414307     0.36000
N3159       N  0.73677636  0.75042862  0.25621122    -0.44200
N3160       N  0.70324248  0.76451645  0.44093538    -0.44200
C3161       C  0.66527933  0.57109712  0.34876285    -0.00600
C3162       C  0.63779620  0.57308022  0.36132850    -0.12500
C3163       C  0.62721588  0.59869533  0.37377105     0.01600
C3164       C  0.64413512  0.62369038  0.37350081    -0.00700
C3165       C  0.67181243  0.62172417  0.36076392    -0.12500
C3166       C  0.68254071  0.59570454  0.34880308     0.01500
H3167       H  0.62448767  0.55427608  0.36165218     0.14500
H3168       H  0.68498412  0.64068483  0.35968506     0.14500
C3169       C  0.71063490  0.59514393  0.33523744     0.36100
C3170       C  0.59835518  0.59863531  0.38529656     0.36000
N3171       N  0.73309231  0.59471799  0.32418565    -0.44200
N3172       N  0.57521589  0.59830341  0.39448666    -0.44200
C3173       C  0.98794227  0.62934075  0.34466296    -0.00600
C3174       C  0.98541850  0.65913117  0.34612650    -0.12500
C3175       C  0.51048647  0.67615085  0.34890482     0.01600
C3176       C  0.53742849  0.66315965  0.34610652    -0.00700
C3177       C  0.53984296  0.63464574  0.33676803    -0.12500
C3178       C  0.51588076  0.61729702  0.33705437     0.01500
H3179       H  0.96486950  0.66893576  0.35080852     0.14500
H3180       H  0.56075275  0.62501111  0.33396337     0.14500
C3181       C  0.51979410  0.58684748  0.33363381     0.36100
C3182       C  0.50748553  0.70599466  0.35708509     0.36000
N3183       N  0.52389951  0.56254976  0.33106246    -0.44200
N3184       N  0.50524061  0.72985802  0.36381833    -0.44200
C3185       C  0.88864488  0.66576023  0.37396279    -0.00600
C3186       C  0.88288478  0.67076942  0.34160940    -0.12500
C3187       C  0.87561088  0.69818730  0.32993554     0.01600
C3188       C  0.87320818  0.72148354  0.35084784    -0.00700
C3189       C  0.87878357  0.71638248  0.38328121    -0.12500
C3190       C  0.88688908  0.68913029  0.39478454     0.01500
H3191       H  0.88470300  0.65321078  0.32511811     0.14500
H3192       H  0.87701709  0.73388757  0.39984753     0.14500
C3193       C  0.89248983  0.68561636  0.42817815     0.36100
C3194       C  0.86998618  0.70153658  0.29651782     0.36000
N3195       N  0.89690942  0.68293633  0.45498817    -0.44200
N3196       N  0.86550658  0.70423207  0.26971944    -0.44200
C3197       C  0.78754978  0.50725721  0.34274507    -0.00600
C3198       C  0.79191336  0.51547978  0.37462447    -0.12500
C3199       C  0.81767435  0.52704901  0.38528711     0.01600
C3200       C  0.83983775  0.53162555  0.36381827    -0.00700
C3201       C  0.83591441  0.52314458  0.33213692    -0.12500
C3202       C  0.81045642  0.51035161  0.32170881     0.01500
H3203       H  0.77506493  0.51292666  0.39172998     0.14500
H3204       H  0.85318227  0.52581648  0.31557536     0.14500
C3205       C  0.80908318  0.49958863  0.28988582     0.36100
C3206       C  0.82037257  0.53476798  0.41818651     0.36000
N3207       N  0.80836981  0.49052201  0.26451780    -0.44200
N3208       N  0.82247585  0.54080136  0.44458326    -0.44200
C3209       C  0.87232649  0.87772638  0.25163479    -0.00600
C3210       C  0.85861753  0.88761177  0.22371654    -0.12500
C3211       C  0.87188137  0.90693846  0.20249249     0.01600
C3212       C  0.89990337  0.91706953  0.20842888    -0.00700
C3213       C  0.91339619  0.90752643  0.23653629    -0.12500
C3214       C  0.90010219  0.88850779  0.25788842     0.01500
H3215       H  0.83754655  0.87970087  0.21792204     0.14500
H3216       H  0.93453210  0.91532479  0.24226727     0.14500
C3217       C  0.91569258  0.88076398  0.28628652     0.36100
C3218       C  0.85638247  0.91534281  0.17428621     0.36000
N3219       N  0.92816766  0.87455519  0.30906747    -0.44200
N3220       N  0.84401380  0.92214222  0.15163791    -0.44200
C3221       C  0.94285761  0.50473414  0.24813609    -0.00600
C3222       C  0.93050201  0.98661552  0.26307279    -0.12500
C3223       C  0.92318546  0.49535987  0.30015840     0.01600
C3224       C  0.94258712  0.51503026  0.31308726    -0.00700
C3225       C  0.96413394  0.52635706  0.29403522    -0.12500
C3226       C  0.96442177  0.52146224  0.26170225     0.01500
H3227       H  0.91496087  0.97335169  0.25105847     0.14500
H3228       H  0.97885842  0.54177748  0.30386445     0.14500
C3229       C  0.98527818  0.53603883  0.24271506     0.36100
C3230       C  0.90623535  0.97578719  0.31254326     0.36000
N3231       N  0.00198050  0.54781375  0.22756964    -0.44200
N3232       N  0.88820485  0.96419704  0.32589189    -0.44200
C3233       C  0.69530826  0.50594353  0.21521664    -0.00600
C3234       C  0.67223798  0.99334133  0.19455381    -0.12500
C3235       C  0.67257676  0.49572916  0.16479980     0.01600
C3236       C  0.69418312  0.51075282  0.14906185    -0.00700
C3237       C  0.71796461  0.52029534  0.16653585    -0.12500
C3238       C  0.71895376  0.51740589  0.19946292     0.01500
H3239       H  0.65592883  0.98006435  0.20517308     0.14500
H3240       H  0.73474726  0.53194212  0.15463513     0.14500
C3241       C  0.74368081  0.52737760  0.21662032     0.36100
C3242       C  0.65118500  0.98275228  0.14328485     0.36000
N3243       N  0.76356498  0.53523106  0.23034992    -0.44200
N3244       N  0.63390803  0.97043847  0.12938632    -0.44200
C3245       C  0.53198534  0.51168272  0.12548309    -0.00600
C3246       C  0.54915131  0.49271887  0.10825249    -0.12500
C3247       C  0.57578159  0.50113579  0.09631373     0.01600
C3248       C  0.58648151  0.52879796  0.10268100    -0.00700
C3249       C  0.56938193  0.54761795  0.12030666    -0.12500
C3250       C  0.54217302  0.53959506  0.13092824     0.01500
H3251       H  0.54912531  0.97219071  0.10143703     0.14500
H3252       H  0.57708284  0.56899032  0.12526711     0.14500
C3253       C  0.52514028  0.56037051  0.14743541     0.36100
C3254       C  0.59776200  0.98489066  0.07337760     0.36000
N3255       N  0.01144490  0.57658035  0.16008456    -0.44200
N3256       N  0.61175806  0.96924725  0.05909353    -0.44200
C3257       C  0.63056838  0.86862762  0.20684068    -0.00600
C3258       C  0.61333054  0.88925782  0.22154219    -0.12500
C3259       C  0.62448903  0.90915891  0.24316759     0.01600
C3260       C  0.65408353  0.90938951  0.25087792    -0.00700
C3261       C  0.67133319  0.88832699  0.23676199    -0.12500
C3262       C  0.65999056  0.86813534  0.21525413     0.01500
H3263       H  0.59067036  0.88983979  0.21628459     0.14500
H3264       H  0.69394341  0.88774737  0.24224885     0.14500
C3265       C  0.67908332  0.84668628  0.20300334     0.36100
C3266       C  0.60452682  0.92878315  0.25734049     0.36000
N3267       N  0.69441388  0.82943100  0.19331616    -0.44200
N3268       N  0.58850020  0.94447358  0.26869151    -0.44200
C3269       C  0.58441542  0.77354417  0.31200751    -0.00600
C3270       C  0.56033816  0.76525382  0.29431066    -0.12500
C3271       C  0.55916511  0.76954592  0.26157786     0.01600
C3272       C  0.58253967  0.78218454  0.24631762    -0.00700
C3273       C  0.60506620  0.79320770  0.26452481    -0.12500
C3274       C  0.60609542  0.78918908  0.29716972     0.01500
H3275       H  0.54376413  0.75289209  0.30563143     0.14500
H3276       H  0.62244665  0.80429168  0.25306257     0.14500
C3277       C  0.63124549  0.79834233  0.31416228     0.36100
C3278       C  0.53502355  0.75862695  0.24409267     0.36000
N3279       N  0.65144861  0.80570035  0.32764762    -0.44200
N3280       N  0.51566997  0.74985470  0.23012200    -0.44200
C3281       C  0.52895540  0.86493463  0.09265787    -0.00600
C3282       C  0.50081163  0.85967592  0.10140461    -0.12500
C3283       C  0.98216799  0.88238213  0.10077825     0.01600
C3284       C  0.99173037  0.91020229  0.09403880    -0.00700
C3285       C  0.51697817  0.91371016  0.08003274    -0.12500
C3286       C  0.53649084  0.89123524  0.07914323     0.01500
H3287       H  0.49487976  0.83882256  0.11062227     0.14500
H3288       H  0.52354928  0.93489801  0.07246703     0.14500
C3289       C  0.56420539  0.89603115  0.06585105     0.36100
C3290       C  0.95413139  0.87698133  0.11320910     0.36000
N3291       N  0.58600624  0.90034033  0.05430946    -0.44200
N3292       N  0.93177912  0.87253695  0.12338002    -0.44200
C3293       C  0.63365043  0.65649103  0.08929570    -0.00600
C3294       C  0.64927686  0.66913376  0.11401728    -0.12500
C3295       C  0.64193333  0.69618167  0.12580763     0.01600
C3296       C  0.61820992  0.71108057  0.11299701    -0.00700
C3297       C  0.60180520  0.69764966  0.08922492    -0.12500
C3298       C  0.60909872  0.67046506  0.07772228    -0.03300
H3299       H  0.66773011  0.65801508  0.12378979     0.14500
H3300       H  0.58312465  0.70845470  0.07952454     0.14500
C3301       C  0.59071451  0.65697868  0.05481681     0.36100
C3302       C  0.65990221  0.70858512  0.14990725     0.36000
N3303       N  0.57568035  0.64598169  0.03685507    -0.44200
N3304       N  0.67431260  0.71854468  0.16921271    -0.44200
C3305       C  0.83656565  0.78470118  0.21077768    -0.00600
C3306       C  0.81256847  0.77202498  0.19683812    -0.12500
C3307       C  0.81147880  0.76692930  0.16444632     0.01600
C3308       C  0.83457116  0.77502013  0.14525203    -0.00700
C3309       C  0.85705640  0.79055254  0.15847910    -0.12500
C3310       C  0.85852484  0.79511400  0.19105832     0.01500
H3311       H  0.79509314  0.76489065  0.21146745     0.14500
H3312       H  0.87495218  0.79658338  0.14387596     0.14500
C3313       C  0.88321644  0.80985471  0.20328585     0.36100
C3314       C  0.78757034  0.75110261  0.15190775     0.36000
N3315       N  0.90322364  0.82154049  0.21268146    -0.44200
N3316       N  0.76855809  0.73813783  0.14205668    -0.44200
C3317       C  0.78471902  0.66347585  0.10274534    -0.00600
C3318       C  0.75910796  0.67555576  0.09191607    -0.12500
C3319       C  0.73455074  0.65931367  0.09067426     0.01600
C3320       C  0.73534161  0.63085564  0.10186322    -0.00700
C3321       C  0.75990006  0.62005281  0.11681476    -0.12500
C3322       C  0.78480358  0.63631998  0.11745467     0.01500
H3323       H  0.75905372  0.69671503  0.08112519     0.14500
H3324       H  0.76030096  0.59812822  0.12546461     0.14500
C3325       C  0.81047391  0.62358427  0.13039213     0.36100
C3326       C  0.71029630  0.67146185  0.07404975     0.36000
N3327       N  0.83080215  0.61314016  0.14112931    -0.44200
N3328       N  0.69168430  0.68217509  0.06017783    -0.44200
C3329       C  0.94046119  0.75105104  0.10144523    -0.00600
C3330       C  0.94401756  0.76791877  0.12851024    -0.12500
C3331       C  0.97120348  0.77666409  0.13866154     0.01600
C3332       C  0.99579867  0.76780096  0.12204993    -0.00700
C3333       C  0.99205211  0.74968487  0.09579173    -0.12500
C3334       C  0.96480392  0.74149865  0.08537124     0.01500
H3335       H  0.92536293  0.77489683  0.14136040     0.14500
H3336       H  0.01042884  0.74246084  0.08264912     0.14500
C3337       C  0.96230305  0.72266161  0.05859129     0.36100
C3338       C  0.97296814  0.79498601  0.16593684     0.36000
N3339       N  0.96012979  0.70745816  0.03724294    -0.44200
N3340       N  0.47481592  0.80643191  0.19064791    -0.44200
C3341       C  0.90686521  0.57083726  0.11001259    -0.00600
C3342       C  0.90383547  0.59297018  0.13180405    -0.12500
C3343       C  0.89688954  0.62087715  0.12185808     0.01600
C3344       C  0.89173617  0.62703318  0.08927960    -0.00700
C3345       C  0.89450967  0.60482661  0.06753172    -0.12500
C3346       C  0.90253475  0.57718177  0.07735081     0.01500
H3347       H  0.90731150  0.58854959  0.15677689     0.14500
H3348       H  0.89058582  0.60914610  0.04261584     0.14500
C3349       C  0.90584930  0.55581649  0.05312224     0.36100
C3350       C  0.89410174  0.64228038  0.14611556     0.36000
N3351       N  0.90880990  0.53884033  0.03362331    -0.44200
N3352       N  0.89196855  0.65911661  0.16589781    -0.44200
C3353       C  0.87635801  0.71985100  0.89261508    -0.00600
C3354       C  0.86444069  0.74302683  0.90868670    -0.12500
C3355       C  0.86419609  0.74371413  0.94168587     0.01600
C3356       C  0.87520121  0.72015063  0.95948615    -0.00700
C3357       C  0.88358085  0.69545716  0.94313186    -0.12500
C3358       C  0.88416156  0.69517539  0.91000995     0.01500
H3359       H  0.85867889  0.76227520  0.89545538     0.14500
H3360       H  0.89068925  0.67662555  0.95621859     0.14500
C3361       C  0.89525762  0.67024321  0.89435182     0.36100
C3362       C  0.85330604  0.76942836  0.95613586     0.36000
N3363       N  0.90389207  0.65006689  0.88190241    -0.44200
N3364       N  0.84468551  0.79021714  0.96738301    -0.44200
C3365       C  0.64389099  0.56653115  0.96359554    -0.00600
C3366       C  0.65482022  0.54446103  0.94472708    -0.12500
C3367       C  0.65231641  0.54573733  0.91181587     0.01600
C3368       C  0.63757625  0.56879251  0.89748710    -0.00700
C3369       C  0.62913394  0.59203869  0.91594150    -0.12500
C3370       C  0.63231228  0.59127583  0.94867966     0.01500
H3371       H  0.66559480  0.52628380  0.95563121     0.14500
H3372       H  0.61792032  0.60990079  0.90488166     0.14500
C3373       C  0.62263670  0.61595378  0.96602105     0.36100
C3374       C  0.66389633  0.52257747  0.89344458     0.36000
N3375       N  0.61520682  0.63602499  0.97959001    -0.44200
N3376       N  0.67358946  0.50424995  0.87868363    -0.44200
C3377       C  0.97980138  0.65962495  0.87253256    -0.00600
C3378       C  0.96872491  0.63700585  0.85480234    -0.12500
C3379       C  0.48714748  0.61500800  0.84514092     0.01600
C3380       C  0.51573617  0.61441691  0.85550335    -0.00700
C3381       C  0.52513100  0.63388037  0.87825676    -0.12500
C3382       C  0.50754619  0.65676356  0.88677823     0.01500
H3383       H  0.94801635  0.63945969  0.84341344     0.14500
H3384       H  0.54678293  0.63250185  0.88736542     0.14500
C3385       C  0.51882962  0.67866412  0.90713056     0.36100
C3386       C  0.97601519  0.59607635  0.82068238     0.36000
N3387       N  0.52802969  0.69595277  0.92373707    -0.44200
N3388       N  0.96691294  0.58149774  0.80109538    -0.44200
C3389       C  0.78704711  0.75783477  0.99864076    -0.00600
C3390       C  0.77307018  0.74097733  0.97573118    -0.12500
C3391       C  0.75200447  0.75241731  0.95505346     0.01600
C3392       C  0.74428605  0.78180990  0.95633336    -0.00700
C3393       C  0.75837740  0.79868485  0.97911409    -0.12500
C3394       C  0.77919597  0.78719825  0.00001112     0.01500
H3395       H  0.77855229  0.71849478  0.97386022     0.14500
H3396       H  0.75289406  0.82116510  0.98101769     0.14500
C3397       C  0.79201259  0.80643261  0.02251456     0.36100
C3398       C  0.73850416  0.73309341  0.93314368     0.36000
N3399       N  0.80215126  0.82199583  0.04050503    -0.44200
N3400       N  0.72764796  0.71750930  0.91569389    -0.44200
C3401       C  0.65573379  0.81798956  0.99909097    -0.00600
C3402       C  0.65202415  0.84310166  0.01684920    -0.12500
C3403       C  0.64984936  0.84164766  0.04980083     0.01600
C3404       C  0.65094922  0.81493517  0.06519469    -0.00700
C3405       C  0.65848980  0.79060858  0.04829168    -0.12500
C3406       C  0.66071549  0.79172430  0.01551829     0.01500
H3407       H  0.65009517  0.86368549  0.00509046     0.14500
H3408       H  0.65934543  0.77001191  0.06026847     0.14500
C3409       C  0.66726320  0.76512407  0.99985969     0.36100
C3410       C  0.64556207  0.86747114  0.06771217     0.36000
N3411       N  0.67247921  0.74376234  0.98744069    -0.44200
N3412       N  0.64267214  0.88796115  0.08257926    -0.44200
C3413       C  0.53682252  0.75954798  0.83570063    -0.00600
C3414       C  0.55088232  0.74699240  0.86179242    -0.12500
C3415       C  0.57591202  0.75849344  0.87434336     0.01600
C3416       C  0.58796612  0.78297795  0.86017859    -0.00700
C3417       C  0.57395976  0.79539933  0.83366651    -0.12500
C3418       C  0.54842600  0.78411019  0.82164215     0.01500
H3419       H  0.54168660  0.72832900  0.87300687     0.14500
H3420       H  0.58269191  0.81436286  0.82256104     0.14500
C3421       C  0.53359156  0.79918015  0.79650778     0.36100
C3422       C  0.58862508  0.74443864  0.90155987     0.36000
N3423       N  0.52161847  0.81153962  0.77660720    -0.44200
N3424       N  0.59866925  0.73319126  0.92346090    -0.44200
C3425       C  0.62011755  0.96758983  0.84797710    -0.00600
C3426       C  0.62717936  0.96386894  0.88023201    -0.12500
C3427       C  0.63555663  0.93710177  0.89256026     0.01600
C3428       C  0.63590008  0.91297660  0.87279604    -0.00700
C3429       C  0.62849205  0.91664344  0.84061585    -0.12500
C3430       C  0.62124257  0.94361305  0.82801198     0.01500
H3431       H  0.62644147  0.98211377  0.89591841     0.14500
H3432       H  0.62935497  0.89846942  0.82484701     0.14500
C3433       C  0.61479709  0.94589735  0.79465993     0.36100
C3434       C  0.64320796  0.93494638  0.92560313     0.36000
N3435       N  0.60986782  0.94762145  0.76786412    -0.44200
N3436       N  0.64941892  0.93328871  0.95208473    -0.44200
C3437       C  0.78149413  0.50193211  0.95879102    -0.00600
C3438       C  0.77738315  0.99142270  0.98705067    -0.12500
C3439       C  0.74990585  0.49894324  0.00531024     0.01600
C3440       C  0.73911523  0.52714461  0.00016716    -0.00700
C3441       C  0.74990546  0.54215157  0.97380051    -0.12500
C3442       C  0.77065906  0.53010858  0.95352378     0.01500
H3443       H  0.78601449  0.97048652  0.99301131     0.14500
H3444       H  0.74203767  0.56357642  0.96878729     0.14500
C3445       C  0.78031626  0.54743536  0.92742321     0.36100
C3446       C  0.74908043  0.98790963  0.03525772     0.36000
N3447       N  0.78811968  0.56135806  0.90654295    -0.44200
N3448       N  0.74250331  0.97509306  0.05748795    -0.44200
C3449       C  0.87690073  0.96451231  0.99854795    -0.00600
C3450       C  0.86598436  0.98800014  0.01535835    -0.12500
C3451       C  0.86792348  0.98893793  0.04829748     0.01600
C3452       C  0.88194761  0.96662998  0.06463229    -0.00700
C3453       C  0.88881620  0.94143320  0.04851089    -0.12500
C3454       C  0.88658443  0.94017945  0.01566763     0.01500
H3455       H  0.85631171  0.00592225  0.00276782     0.14500
H3456       H  0.89925996  0.92400086  0.06125333     0.14500
C3457       C  0.89610650  0.91430744  0.00047633     0.36100
C3458       C  0.85774109  0.01403558  0.06451075     0.36000
N3459       N  0.90360827  0.89333883  0.98869604    -0.44200
N3460       N  0.84941306  0.03407209  0.07751383    -0.44200
C3461       C  0.73952263  0.87378142  0.84669020    -0.00600
C3462       C  0.76511559  0.85936672  0.85286473    -0.12500
C3463       C  0.78983109  0.87479638  0.85756541     0.01600
C3464       C  0.78907888  0.90465511  0.85329526    -0.00700
C3465       C  0.76465690  0.91825963  0.84112889    -0.12500
C3466       C  0.73957289  0.90274002  0.83749105     0.01500
H3467       H  0.76478070  0.83685706  0.85939059     0.14500
H3468       H  0.76453051  0.94117761  0.83728068     0.14500
C3469       C  0.71374141  0.91750768  0.82799788     0.36100
C3470       C  0.81366709  0.86001779  0.87216598     0.36000
N3471       N  0.69313578  0.92930432  0.81999647    -0.44200
N3472       N  0.83179546  0.84730022  0.88466625    -0.44200
C3473       C  0.93897739  0.99969296  0.85577450    -0.00600
C3474       C  0.94255172  0.00334602  0.82283081    -0.12500
C3475       C  0.96910097  0.01030167  0.80989295     0.01600
C3476       C  0.99091773  0.51504968  0.83509031    -0.00700
C3477       C  0.98705645  0.51059661  0.86781755    -0.12500
C3478       C  0.96037117  0.50335948  0.88037121     0.01500
H3479       H  0.92445600  0.00085244  0.80696336     0.14500
H3480       H  0.00494253  0.51337924  0.88391533     0.14500
C3481       C  0.95819197  0.49892201  0.91405332     0.36100
C3482       C  0.47216850  0.01266621  0.77638051     0.36000
N3483       N  0.95641830  0.49537725  0.94105365    -0.44200
N3484       N  0.47434128  0.01509754  0.74928276    -0.44200
C3485       C  0.89390119  0.87513038  0.87134152    -0.00600
C3486       C  0.88136624  0.86319492  0.84424410    -0.12500
C3487       C  0.89074565  0.83699228  0.83190973     0.01600
C3488       C  0.91424709  0.82238126  0.84595522    -0.00700
C3489       C  0.92793645  0.83542910  0.87204144    -0.12500
C3490       C  0.91799572  0.86146475  0.88471319     0.01500
H3491       H  0.86357177  0.87427390  0.83287713     0.14500
H3492       H  0.94612514  0.82489745  0.88324105     0.14500
C3493       C  0.93309446  0.87400266  0.91097857     0.36100
C3494       C  0.87557045  0.82577103  0.80491786     0.36000
N3495       N  0.94543211  0.88410482  0.93187419    -0.44200
N3496       N  0.86315098  0.81687305  0.78340043    -0.44200
C3497       C  0.88226062  0.61578814  0.71290597    -0.00600
C3498       C  0.91217136  0.61814624  0.71610632    -0.12500
C3499       C  0.92505877  0.63818893  0.73679295     0.01600
C3500       C  0.90814650  0.65685561  0.75529758    -0.00700
C3501       C  0.87832964  0.65437036  0.75218372    -0.12500
C3502       C  0.86545558  0.63444383  0.73160970     0.01500
H3503       H  0.92571607  0.60421291  0.70236465     0.14500
H3504       H  0.86474942  0.66850868  0.76565149     0.14500
C3505       C  0.83473240  0.63454479  0.72967578     0.36100
C3506       C  0.95575561  0.63991410  0.73736764     0.36000
N3507       N  0.81009563  0.63481342  0.72820343    -0.44200
N3508       N  0.98036449  0.64141611  0.73776028    -0.44200
C3509       C  0.90290518  0.57099110  0.56550623    -0.00600
C3510       C  0.91568117  0.54769587  0.55058523    -0.12500
C3511       C  0.91866905  0.54745494  0.51776702     0.01600
C3512       C  0.90926934  0.57134522  0.49941290    -0.00700
C3513       C  0.89990843  0.59597481  0.51498779    -0.12500
C3514       C  0.89664406  0.59594775  0.54772312     0.01500
H3515       H  0.92040142  0.52838883  0.56408558     0.14500
H3516       H  0.89393528  0.61492747  0.50147950     0.14500
C3517       C  0.88477565  0.62112573  0.56220140     0.36100
C3518       C  0.93075643  0.52199916  0.50392206     0.36000
N3519       N  0.87536886  0.64165195  0.57319541    -0.44200
N3520       N  0.94036634  0.50146473  0.49308710    -0.44200
C3521       C  0.84065639  0.52328421  0.74697208    -0.00600
C3522       C  0.81489992  0.01905362  0.75928220    -0.12500
C3523       C  0.81290306  0.01602612  0.79204558     0.01600
C3524       C  0.83517334  0.51826405  0.81296360    -0.00700
C3525       C  0.86031204  0.52885071  0.80003062    -0.12500
C3526       C  0.86348192  0.53102184  0.76737332     0.01500
H3527       H  0.79655638  0.01396324  0.74463102     0.14500
H3528       H  0.87852102  0.53285484  0.81535319     0.14500
C3529       C  0.89057403  0.54100190  0.75589486     0.36100
C3530       C  0.78665334  0.00565792  0.80533129     0.36000
N3531       N  0.91231872  0.54898614  0.74681218    -0.44200
N3532       N  0.76561706  0.99748675  0.81608765    -0.44200
C3533       C  0.62212507  0.62229634  0.75144835    -0.00600
C3534       C  0.60841487  0.63254103  0.72370621    -0.12500
C3535       C  0.62158497  0.65211289  0.70275120     0.01600
C3536       C  0.64943201  0.66257710  0.70897422    -0.00700
C3537       C  0.66314285  0.65235424  0.73673920    -0.12500
C3538       C  0.65006419  0.63265563  0.75760621     0.01500
H3539       H  0.58734395  0.62469567  0.71778684     0.14500
H3540       H  0.68430887  0.66003829  0.74252670     0.14500
C3541       C  0.66605226  0.62364563  0.78528453     0.36100
C3542       C  0.60613921  0.66027229  0.67443657     0.36000
N3543       N  0.67889282  0.61636614  0.80743527    -0.44200
N3544       N  0.59373443  0.66666976  0.65167640    -0.44200
C3545       C  0.63424321  0.71413294  0.56314061    -0.00600
C3546       C  0.64344373  0.69049349  0.54551819    -0.12500
C3547       C  0.64088745  0.69033898  0.51267050     0.01600
C3548       C  0.62776600  0.71370359  0.49700464    -0.00700
C3549       C  0.61551012  0.73572847  0.51500797    -0.12500
C3550       C  0.61855571  0.73605237  0.54791325     0.01500
H3551       H  0.65571725  0.67368264  0.55714845     0.14500
H3552       H  0.60395529  0.75302361  0.50332463     0.14500
C3553       C  0.60750629  0.76021993  0.56509800     0.36100
C3554       C  0.65424787  0.66726869  0.49563742     0.36000
N3555       N  0.59849432  0.77952999  0.57884357    -0.44200
N3556       N  0.66511456  0.64890302  0.48196086    -0.44200
C3557       C  0.69540178  0.75265802  0.74813733    -0.00600
C3558       C  0.67266737  0.74188094  0.76591802    -0.12500
C3559       C  0.67096143  0.74703741  0.79824812     0.01600
C3560       C  0.69193396  0.76386523  0.81293537    -0.00700
C3561       C  0.71613722  0.77199949  0.79597062    -0.12500
C3562       C  0.71826248  0.76613839  0.76380010     0.01500
H3563       H  0.65584192  0.72990009  0.75439589     0.14500
H3564       H  0.73235022  0.78491634  0.80737269     0.14500
C3565       C  0.74336424  0.77553171  0.74743238     0.36100
C3566       C  0.64620634  0.73712147  0.81501782     0.36000
N3567       N  0.76384088  0.78280896  0.73478647    -0.44200
N3568       N  0.62640695  0.72895895  0.82834649    -0.44200
C3569       C  0.79029074  0.62039762  0.60233529    -0.00600
C3570       C  0.76289923  0.61627416  0.58967865    -0.12500
C3571       C  0.74313736  0.63852428  0.59039139     0.01600
C3572       C  0.75188748  0.66509914  0.60198790    -0.00700
C3573       C  0.78034721  0.67017381  0.60986839    -0.12500
C3574       C  0.79970374  0.64785995  0.61058793     0.01500
H3575       H  0.75582798  0.59492470  0.58349473     0.14500
H3576       H  0.78659227  0.69058820  0.61972129     0.14500
C3577       C  0.82755944  0.65289119  0.62430351     0.36100
C3578       C  0.71367350  0.63283842  0.58276337     0.36000
N3579       N  0.84958793  0.65709655  0.63583996    -0.44200
N3580       N  0.69006521  0.62802263  0.57686378    -0.44200
C3581       C  0.99383848  0.77763254  0.49984270    -0.00600
C3582       C  0.50361349  0.75148351  0.50449727    -0.12500
C3583       C  0.52396343  0.73811192  0.48490388     0.01600
C3584       C  0.53505628  0.75248488  0.45790800    -0.00700
C3585       C  0.52414727  0.78006500  0.45129968    -0.12500
C3586       C  0.01506344  0.79427537  0.48465687     0.01500
H3587       H  0.49589763  0.73996996  0.52495695     0.14500
H3588       H  0.53169764  0.79148548  0.43069883     0.14500
C3589       C  0.01776336  0.82455242  0.49041235     0.36100
C3590       C  0.53292616  0.70948833  0.49357540     0.36000
N3591       N  0.02010967  0.84882676  0.49493077    -0.44200
N3592       N  0.53985790  0.68648024  0.50058843    -0.44200
C3593       C  0.90008528  0.82282292  0.46259160    -0.00600
C3594       C  0.91233326  0.80249874  0.44251169    -0.12500
C3595       C  0.90848292  0.80445673  0.40986619     0.01600
C3596       C  0.89128577  0.82655228  0.39710311    -0.00700
C3597       C  0.88147331  0.84843882  0.41687250    -0.12500
C3598       C  0.88578343  0.84681202  0.44947120     0.01500
H3599       H  0.92487993  0.78496959  0.45235592     0.14500
H3600       H  0.86821302  0.86547373  0.40709389     0.14500
C3601       C  0.87369544  0.86902095  0.46889956     0.36100
C3602       C  0.92050509  0.78229400  0.39036014     0.36000
N3603       N  0.86405863  0.88683668  0.48444359    -0.44200
N3604       N  0.93024478  0.76466877  0.37463785    -0.44200
C3605       C  0.94065244  0.75657077  0.64625774    -0.00600
C3606       C  0.96618096  0.76126746  0.66291042    -0.12500
C3607       C  0.96743681  0.75827067  0.69578603     0.01600
C3608       C  0.94237284  0.75192925  0.71258962    -0.00700
C3609       C  0.91763805  0.74470024  0.69571204    -0.12500
C3610       C  0.91689837  0.74610697  0.66272103     0.01500
H3611       H  0.98457924  0.76937222  0.65040300     0.14500
H3612       H  0.89898797  0.73737484  0.70834319     0.14500
C3613       C  0.89111237  0.73783678  0.64648562     0.36100
C3614       C  0.99441386  0.76264784  0.71165836     0.36000
N3615       N  0.87046306  0.73043650  0.63393139    -0.44200
N3616       N  0.01622489  0.76572574  0.72411883    -0.44200
C3617       C  0.83803941  0.78155847  0.59840361    -0.00600
C3618       C  0.82445565  0.79643705  0.62305189    -0.12500
C3619       C  0.79823641  0.78740540  0.63538486     0.01600
C3620       C  0.78507365  0.76264742  0.62361068    -0.00700
C3621       C  0.79809310  0.74817798  0.59847332    -0.12500
C3622       C  0.82438413  0.75703877  0.58614011     0.01500
H3623       H  0.83431467  0.81543045  0.63275577     0.14500
H3624       H  0.78743335  0.73004121  0.58796803     0.14500
C3625       C  0.83740438  0.73958165  0.56218938     0.36100
C3626       C  0.78494400  0.80442747  0.65944855     0.36000
N3627       N  0.84783709  0.72528781  0.54325192    -0.44200
N3628       N  0.77442700  0.81857593  0.67843917    -0.44200
C3629       C  0.88880572  0.90899675  0.58447305    -0.00600
C3630       C  0.87576611  0.91290529  0.61406848    -0.12500
C3631       C  0.86868224  0.94029957  0.62508746     0.01600
C3632       C  0.87433176  0.96456069  0.60631941    -0.00700
C3633       C  0.88600171  0.96066856  0.57616495    -0.12500
C3634       C  0.89339320  0.93335816  0.56521329     0.01500
H3635       H  0.87191298  0.89455969  0.62925248     0.14500
H3636       H  0.88970119  0.97917338  0.56115459     0.14500
C3637       C  0.90561587  0.93107165  0.53416384     0.36100
C3638       C  0.85466349  0.94295180  0.65515464     0.36000
N3639       N  0.91540069  0.92928683  0.50925859    -0.44200
N3640       N  0.84322515  0.94526351  0.67911110    -0.44200
C3641       C  0.53918046  0.50460182  0.49730548    -0.00600
C3642       C  0.53761924  0.53464117  0.49447057    -0.12500
C3643       C  0.51832052  0.54837540  0.47340785     0.01600
C3644       C  0.99744124  0.53378928  0.45575516    -0.00700
C3645       C  0.00567791  0.50516766  0.45075236    -0.12500
C3646       C  0.51960322  0.98468134  0.47566307     0.01500
H3647       H  0.55209429  0.54765533  0.50829832     0.14500
H3648       H  0.99373888  0.98735978  0.43212863     0.14500
C3649       C  0.52147560  0.95388144  0.47397592     0.36100
C3650       C  0.51964886  0.57916487  0.47087362     0.36000
N3651       N  0.52271073  0.92917740  0.47257817    -0.44200
N3652       N  0.52092126  0.60382537  0.46868176    -0.44200
C3653       C  0.58518306  0.53200762  0.70893586    -0.00600
C3654       C  0.56114640  0.52194824  0.69247851    -0.12500
C3655       C  0.56209556  0.51752431  0.65985224     0.01600
C3656       C  0.58740394  0.52299004  0.64330399    -0.00700
C3657       C  0.61120979  0.03361080  0.65656917    -0.12500
C3658       C  0.61131142  0.03792532  0.68917202     0.01500
H3659       H  0.54189791  0.51665431  0.70519437     0.14500
H3660       H  0.63075718  0.03669530  0.64347996     0.14500
C3661       C  0.63716904  0.04872333  0.70339866     0.36100
C3662       C  0.53728344  0.50641771  0.64377333     0.36000
N3663       N  0.65800617  0.05719247  0.71469453    -0.44200
N3664       N  0.51731640  0.49789802  0.63072074    -0.44200
C3665       C  0.62545141  0.96111950  0.45737978    -0.00600
C3666       C  0.60801377  0.98035293  0.44022145    -0.12500
C3667       C  0.60838441  0.98105587  0.40719496     0.01600
C3668       C  0.62690429  0.96279538  0.39077284    -0.00700
C3669       C  0.64161288  0.94124164  0.40773586    -0.12500
C3670       C  0.64118926  0.94036842  0.44085894     0.01500
H3671       H  0.59713571  0.49953360  0.45377370     0.14500
H3672       H  0.65628121  0.92734420  0.39536239     0.14500
C3673       C  0.65910087  0.91978044  0.45725617     0.36100
C3674       C  0.59366016  0.50547544  0.39156092     0.36000
N3675       N  0.67356550  0.90336014  0.47038698    -0.44200
N3676       N  0.57960604  0.52206742  0.37814663    -0.44200
C3677       C  0.54248415  0.90397880  0.60839321    -0.00600
C3678       C  0.51641123  0.91788727  0.61263936    -0.12500
C3679       C  0.99166167  0.90162650  0.61406196     0.01600
C3680       C  0.99307196  0.87164652  0.61118346    -0.00700
C3681       C  0.51929107  0.85816073  0.61188234    -0.12500
C3682       C  0.54427248  0.87396287  0.61073368     0.01500
H3683       H  0.51526942  0.94105100  0.61137965     0.14500
H3684       H  0.52023837  0.83502910  0.60979168     0.14500
C3685       C  0.57085471  0.85866429  0.60812115     0.36100
C3686       C  0.96500667  0.91705235  0.61470550     0.36000
N3687       N  0.59168568  0.84549604  0.60638726    -0.44200
N3688       N  0.94415253  0.93028779  0.61558675    -0.44200
C3689       C  0.69306031  0.99998350  0.59746032    -0.00600
C3690       C  0.71360448  0.00714255  0.57488804    -0.12500
C3691       C  0.74372233  0.51302249  0.58555385     0.01600
C3692       C  0.75141338  0.51564463  0.61797364    -0.00700
C3693       C  0.73042178  0.51034126  0.64055664    -0.12500
C3694       C  0.70125495  0.00149811  0.63000032     0.01500
H3695       H  0.70804122  0.00619043  0.54997127     0.14500
H3696       H  0.73582905  0.51239592  0.66543525     0.14500
C3697       C  0.68199471  0.99421060  0.65517629     0.36100
C3698       C  0.76374976  0.51900606  0.56072785     0.36000
N3699       N  0.66676984  0.98808011  0.67544405    -0.44200
N3700       N  0.77962622  0.52376164  0.54063716    -0.44200
C3701       C  0.64755122  0.87340132  0.58461345    -0.00600
C3702       C  0.65705221  0.86993721  0.61618838    -0.12500
C3703       C  0.66394744  0.84283489  0.62870519     0.01600
C3704       C  0.66204459  0.81854396  0.60933331    -0.00700
C3705       C  0.65416949  0.82225962  0.57732830    -0.12500
C3706       C  0.64651923  0.84915188  0.56502775     0.01500
H3707       H  0.65788211  0.88830306  0.63168319     0.14500
H3708       H  0.65328830  0.80384703  0.56190005     0.14500
C3709       C  0.63709320  0.85105319  0.53249584     0.36100
C3710       C  0.67352923  0.84068586  0.66115305     0.36000
N3711       N  0.62934222  0.85251695  0.50648905    -0.44200
N3712       N  0.68129302  0.83905503  0.68714591    -0.44200
loop_ 
_geom_bond_atom_site_label_1 
_geom_bond_atom_site_label_2 
_geom_bond_distance 
_geom_bond_site_symmetry_2 
_ccdc_geom_bond_type 
O1           C16   1.267       .  A
O1           Al9   1.943       .  S
C2           O12   1.260       .  A
C2            O3   1.271       .  A
C2          C905   1.510       .  S
O3           Al5   1.951       .  S
O4            C6   1.270       .  A
O4           Al5   1.936       .  S
Al5         O941   1.958       .  S
Al5         O943   1.937       .  S
Al5          O14   1.779       .  S
C6           O19   1.259       .  A
C6          C881   1.476       .  S
O7           C17   1.272       .  A
O7           Al9   1.953       .  S
O8           C21   1.257       .  A
O8          Al18   1.912       .  S
Al9          O22   1.888       .  S
Al9          O19   1.878       .  S
Al9          O14   1.769       .  S
O10          C17   1.260       .  A
O10         Al18   1.878       .  S
O11          C20   1.255       .  A
O11         Al18   1.858       .  S
O12         Al18   1.914       .  S
O13         C948   1.271       .  A
O13        Al933   1.952   1_545  S
O14         Al18   1.775       .  S
O15         C944   1.270   1_545  A
O15        Al933   1.936   1_545  S
C16         O943   1.271       .  A
C16        C1785   1.519       .  S
C17         C917   1.488       .  S
C20         O941   1.272       .  A
C20        C1800   1.465       .  S
C21          O22   1.260       .  A
C21         C893   1.454       .  S
O23          C38   1.265       .  A
O23         Al31   1.936       .  S
C24          O34   1.260       .  A
C24          O25   1.266       .  A
C24         C833   1.497       .  S
O25         Al27   1.927       .  S
O26          C28   1.270       .  A
O26         Al27   1.925       .  S
Al27         O35   1.948       .  S
Al27         O37   1.935       .  S
Al27         O36   1.783       .  S
C28          O41   1.259       .  A
C28         C809   1.467       .  S
O29          C39   1.270       .  A
O29         Al31   1.953       .  S
O30          C43   1.260       .  A
O30         Al40   1.918       .  S
Al31         O44   1.880       .  S
Al31         O41   1.869       .  S
Al31         O36   1.770       .  S
O32          C39   1.260       .  A
O32         Al40   1.884       .  S
O33          C42   1.254       .  A
O33         Al40   1.848       .  S
O34         Al40   1.908       .  S
O35          C42   1.269       .  A
O36         Al40   1.774       .  S
O37          C38   1.269       .  A
C38         C797   1.512       .  S
C39         C845   1.491       .  S
C42         C821   1.461       .  S
C43          O44   1.259       .  A
C43         C896   1.453       .  S
O45          C60   1.258       .  A
O45         Al53   1.882       .  S
C46          O56   1.267       .  A
C46          O47   1.254       .  A
C46         C920   1.479       .  S
O47         Al49   1.886       .  S
O48          C50   1.261       .  A
O48         Al49   1.894       .  S
Al49         O57   1.844       .  S
Al49         O59   1.881       .  S
Al49         O58   1.776       .  S
C50          O63   1.276       .  A
C50         C836   1.485       .  S
O51          C61   1.259       .  A
O51         Al53   1.873       .  S
O52          C65   1.268       .  A
O52         Al62   1.936       .  S
Al53         O66   1.968       .  S
Al53         O63   1.980       .  S
Al53         O58   1.769       .  S
O54          C61   1.268       .  A
O54         Al62   1.912       .  S
O55          C64   1.270       .  A
O55         Al62   1.947       .  S
O56         Al62   1.935       .  S
O57          C64   1.255       .  A
O58         Al62   1.775       .  S
O59          C60   1.252       .  A
C60         C788   1.432       .  S
C61         C773   1.468       .  S
C64         C761   1.461       .  S
C65          O66   1.272       .  A
C65         C752   1.530       .  S
O67          C82   1.255       .  A
O67         Al75   1.851       .  S
C68        O1006   1.266       .  A
C68         O997   1.260       .  A
C68         C848   1.478       .  S
O69         C996   1.262   1_545  A
O69         Al71   1.916       .  S
O70          C72   1.262       .  A
O70         Al71   1.891       .  S
Al71         O79   1.856       .  S
Al71         O81   1.888       .  S
Al71         O80   1.778       .  S
C72          O85   1.276       .  A
C72         C908   1.501       .  S
O73          C83   1.263       .  A
O73         Al75   1.881       .  S
O74          C87   1.271       .  A
O74         Al84   1.940       .  S
Al75         O88   1.960       .  S
Al75         O85   1.980       .  S
Al75         O80   1.764       .  S
O76          C83   1.268       .  A
O76         Al84   1.925       .  S
O77          C86   1.270       .  A
O77         Al84   1.956       .  S
O78         C996   1.268   1_545  A
O78         Al84   1.925       .  S
O79          C86   1.249       .  A
O80         Al84   1.779       .  S
O81          C82   1.254       .  A
C82         C785   1.437       .  S
C83         C737   1.483       .  S
C86         C725   1.463       .  S
C87          O88   1.272       .  A
C87         C713   1.521       .  S
O89         C104   1.257       .  A
O89         Al97   1.879       .  S
C90         O100   1.272       .  A
C90          O91   1.261       .  A
C90         C689   1.498       .  S
O91         Al93   1.912       .  S
O92          C94   1.259       .  A
O92         Al93   1.885       .  S
Al93        O101   1.856       .  S
Al93        O103   1.898       .  S
Al93        O102   1.771       .  S
C94         O107   1.280       .  A
C94         C701   1.491       .  S
O95         C105   1.258       .  A
O95         Al97   1.868       .  S
O96        C1037   1.270   1_545  A
O96       Al1034   1.929   1_545  S
Al97        O110   1.982       .  S
Al97        O107   1.994       .  S
Al97        O102   1.763       .  S
O98         C105   1.269       .  A
O98        Al106   1.933       .  S
O99        C1036   1.272       .  A
O99       Al1034   1.958   1_545  S
O100       Al106   1.942       .  S
O101        C108   1.252       .  A
O102       Al106   1.780       .  S
O103        C104   1.254       .  A
C104        C680   1.442       .  S
C105        C665   1.476   1_556  S
Al106      O1024   1.934       .  S
Al106      O1027   1.953       .  S
C108       O1027   1.271       .  A
C108       C1668   1.457       .  S
C109        O110   1.277       .  A
C109       O1024   1.270       .  A
C109       C1581   1.532       .  S
O111        C126   1.259       .  A
O111       Al119   1.862       .  S
C112        O122   1.266       .  A
C112        O113   1.259       .  A
C112        C632   1.491       .  S
O113       Al115   1.903       .  S
O114        C116   1.260       .  A
O114       Al115   1.881       .  S
Al115       O123   1.845       .  S
Al115       O125   1.906       .  S
Al115       O124   1.781       .  S
C116        O129   1.274       .  A
C116        C644   1.493       .  S
O117        C127   1.263       .  A
O117       Al119   1.878       .  S
O118        C131   1.266       .  A
O118       Al128   1.927       .  S
Al119       O132   1.956       .  S
Al119       O129   1.973       .  S
Al119       O124   1.768       .  S
O120        C127   1.269       .  A
O120       Al128   1.927       .  S
O121        C130   1.267       .  A
O121       Al128   1.941       .  S
O122       Al128   1.916       .  S
O123        C130   1.252       .  A
O124       Al128   1.782       .  S
O125        C126   1.256       .  A
C126        C677   1.447       .  S
C127        C617   1.482       .  S
C130        C776   1.457       .  S
C131        O132   1.270       .  A
C131        C608   1.520       .  S
O133        C148   1.275       .  A
O133       Al141   1.976       .  S
C134       O1072   1.262       .  A
C134       O1063   1.270       .  A
C134        C641   1.500       .  S
O135       C1062   1.267   1_545  A
O135       Al137   1.938       .  S
O136        C138   1.267       .  A
O136       Al137   1.923       .  S
Al137       O145   1.958       .  S
Al137       O147   1.925       .  S
Al137       O146   1.778       .  S
C138        O151   1.260       .  A
C138        C869   1.481       .  S
O139        C149   1.276       .  A
O139       Al141   1.974       .  S
O140        C153   1.255       .  A
O140       Al150   1.897       .  S
Al141       O154   1.897       .  S
Al141       O151   1.875       .  S
Al141       O146   1.776       .  S
O142        C149   1.259       .  A
O142       Al150   1.876       .  S
O143        C152   1.255       .  A
O143       Al150   1.849       .  S
O144       C1062   1.258   1_545  A
O144       Al150   1.907       .  S
O145        C152   1.273       .  A
O146       Al150   1.774       .  S
O147        C148   1.268       .  A
C148        C749   1.530       .  S
C149       C2548   1.487   1_455  S
C152        C584   1.472       .  S
C153        O154   1.262       .  A
C153        C596   1.453       .  S
O155        C170   1.271       .  A
O155       Al163   1.949       .  S
C156        O166   1.266       .  A
C156        O157   1.275       .  A
C156        C704   1.503       .  S
O157       Al159   1.960       .  S
O158        C160   1.267       .  A
O158       Al159   1.913       .  S
Al159       O167   1.935       .  S
Al159       O169   1.924       .  S
Al159       O168   1.789       .  S
C160        O173   1.251       .  A
C160        C824   1.462       .  S
O161       C2027   1.263       .  A
O161       Al163   1.942       .  S
O162        C175   1.261       .  A
O162       Al172   1.901       .  S
Al163       O176   1.880       .  S
Al163       O173   1.849       .  S
Al163       O168   1.787       .  S
O164       C2027   1.250       .  A
O164       Al172   1.870       .  S
O165        C174   1.247       .  A
O165       Al172   1.847       .  S
O166       Al172   1.901       .  S
O167        C174   1.261       .  A
O168       Al172   1.798       .  S
O169        C170   1.264       .  A
C170        C716   1.524       .  S
C171       O2017   1.263   1_455  A
C171       O2020   1.250   1_455  A
C171        C629   1.479       .  S
C174        C569   1.460       .  S
C175        O176   1.262       .  A
C175        C593   1.451       .  S
O177        C192   1.272       .  A
O177       Al185   1.964       .  S
C178        O188   1.262       .  A
C178        O179   1.268       .  A
C178        C545   1.491       .  S
O179       Al181   1.933       .  S
O180        C182   1.266   1_554  A
O180       Al181   1.921       .  S
Al181       O189   1.954       .  S
Al181       O191   1.926       .  S
Al181       O190   1.777       .  S
C182        O195   1.264   1_556  A
C182        C572   1.490       .  S
O183        C193   1.277       .  A
O183       Al185   1.978       .  S
O184        C197   1.254       .  A
O184       Al194   1.903       .  S
Al185       O198   1.875       .  S
Al185       O195   1.891       .  S
Al185       O190   1.770       .  S
O186        C193   1.260       .  A
O186       Al194   1.882       .  S
O187        C196   1.253       .  A
O187       Al194   1.861       .  S
O188       Al194   1.915       .  S
O189        C196   1.270       .  A
O190       Al194   1.778       .  S
O191        C192   1.269       .  A
C192        C605   1.521       .  S
C193        C560   1.496       .  S
C196        C524   1.463       .  S
C197        O198   1.258       .  A
C197        C533   1.447       .  S
O199        C214   1.260       .  A
O199       Al207   1.893       .  S
C200        O210   1.267       .  A
C200        O201   1.259       .  A
C200        C512   1.487       .  S
O201       Al203   1.908       .  S
O202        C204   1.267       .  A
O202       Al203   1.896       .  S
Al203       O211   1.860       .  S
Al203       O213   1.877       .  S
Al203       O212   1.779       .  S
C204        O217   1.276       .  A
C204       C2404   1.499   1_455  S
O205        C215   1.258       .  A
O205       Al207   1.879       .  S
O206        C219   1.267       .  A
O206       Al216   1.923       .  S
Al207       O220   1.968       .  S
Al207       O217   1.965       .  S
Al207       O212   1.767       .  S
O208        C215   1.266       .  A
O208       Al216   1.920       .  S
O209        C218   1.270       .  A
O209       Al216   1.951       .  S
O210       Al216   1.929       .  S
O211        C218   1.255       .  A
O212       Al216   1.780       .  S
O213        C214   1.249       .  A
C214        C497   1.439       .  S
C215        C488   1.469       .  S
C218        C620   1.459       .  S
C219        O220   1.274       .  A
C219        C473   1.523       .  S
O221        C236   1.271       .  A
O221       Al229   1.972       .  S
C222        O232   1.259       .  A
C222        O223   1.265       .  A
C222        C464   1.492       .  S
O223       Al225   1.925       .  S
O224        C226   1.273   1_554  A
O224       Al225   1.939       .  S
Al225       O233   1.959       .  S
Al225       O235   1.933       .  S
Al225       O234   1.780       .  S
C226        O239   1.261   1_556  A
C226        C581   1.468       .  S
O227        C237   1.273       .  A
O227       Al229   1.972       .  S
O228        C241   1.260       .  A
O228       Al238   1.914       .  S
Al229       O242   1.877       .  S
Al229       O239   1.871       .  S
Al229       O234   1.774       .  S
O230        C237   1.258       .  A
O230       Al238   1.881       .  S
O231        C240   1.252       .  A
O231       Al238   1.843       .  S
O232       Al238   1.907       .  S
O233        C240   1.271       .  A
O234       Al238   1.778       .  S
O235        C236   1.267       .  A
C236        C656   1.531       .  S
C237        C509   1.495       .  S
C240        C452   1.470       .  S
C241        O242   1.261       .  A
C241        C536   1.448       .  S
O243        C258   1.258       .  A
O243       Al251   1.859       .  S
C244        O254   1.269       .  A
C244        O245   1.255       .  A
C244        C557   1.497       .  S
O245      Al1175   1.891   1_545  S
O246       C2104   1.259       .  A
O246      Al1175   1.888   1_545  S
Al247       O255   1.839       .  S
Al247       O257   1.898       .  S
Al247      O1173   1.879       .  S
Al247      O1174   1.904       .  S
Al247       O256   1.776       .  S
C248       O2102   1.260   1_455  A
C248       O1189   1.276   1_545  A
C248        C461   1.489       .  S
O249       C1187   1.260       .  A
O249       Al251   1.863       .  S
O250        C263   1.267       .  A
O250       Al260   1.941       .  S
Al251       O264   1.961       .  S
Al251      O2117   1.978       .  S
Al251       O256   1.769       .  S
O252        C259   1.270   1_545  A
O252      Al1188   1.920   1_545  S
O253        C262   1.267       .  A
O253       Al260   1.939       .  S
O254      Al1188   1.941   1_545  S
O255        C262   1.254       .  A
O256       Al260   1.784       .  S
O257        C258   1.259       .  A
C258        C500   1.449       .  S
C259       O1177   1.261       .  A
C259        C437   1.463   1_565  S
Al260      O1180   1.921       .  S
Al260      O1182   1.936       .  S
O261       C1176   1.273   1_655  A
O261      Al2107   1.981       .  S
C262        C668   1.460       .  S
C263        O264   1.269       .  A
C263        C428   1.528       .  S
O265        C280   1.260       .  A
O265       Al273   1.874       .  S
C266        O276   1.264       .  A
C266        O267   1.258       .  A
C266        C416   1.485       .  S
O267       Al269   1.901       .  S
O268        C270   1.263       .  A
O268       Al269   1.898       .  S
Al269       O277   1.841       .  S
Al269       O279   1.891       .  S
Al269       O278   1.785       .  S
C270        O283   1.272       .  A
C270        C401   1.498       .  S
O271        C281   1.265       .  A
O271       Al273   1.879       .  S
O272        C285   1.265       .  A
O272       Al282   1.929       .  S
Al273       O286   1.949       .  S
Al273       O283   1.968       .  S
Al273       O278   1.772       .  S
O274        C281   1.269       .  A
O274       Al282   1.920       .  S
O275        C284   1.267       .  A
O275       Al282   1.940       .  S
O276       Al282   1.914       .  S
O277        C284   1.252       .  A
O278       Al282   1.785       .  S
O279        C280   1.255       .  A
C280        C389   1.437       .  S
C281        C728   1.480       .  S
C284        C440   1.462       .  S
C285        O286   1.266       .  A
C285        C860   1.521       .  S
O287        C302   1.260       .  A
O287       Al295   1.881       .  S
C288        O298   1.268       .  A
C288        O289   1.255       .  A
C288        C368   1.494       .  S
O289       Al291   1.883       .  S
O290        C292   1.260       .  A
O290       Al291   1.891       .  S
Al291       O299   1.848       .  S
Al291       O301   1.888       .  S
Al291       O300   1.776       .  S
C292        O305   1.272       .  A
C292        C380   1.492       .  S
O293        C303   1.263       .  A
O293       Al295   1.871       .  S
O294        C307   1.270       .  A
O294       Al304   1.939       .  S
Al295       O308   1.933       .  S
Al295       O305   1.959       .  S
Al295       O300   1.769       .  S
O296        C303   1.270       .  A
O296       Al304   1.922       .  S
O297        C306   1.271       .  A
O297       Al304   1.949       .  S
O298       Al304   1.939       .  S
O299        C306   1.253       .  A
O300       Al304   1.776       .  S
O301        C302   1.255       .  A
C302        C392   1.440       .  S
C303        C764   1.470       .  S
C306        C485   1.466       .  S
C307        O308   1.263       .  A
C307        C800   1.518       .  S
O309        C324   1.274       .  A
O309       Al317   1.975       .  S
C310        O320   1.263       .  A
C310        O311   1.269       .  A
C310        C404   1.508       .  S
O311       Al313   1.940       .  S
O312        C314   1.265       .  A
O312       Al313   1.917       .  S
Al313       O321   1.942       .  S
Al313       O323   1.928       .  S
Al313       O322   1.782       .  S
C314        O327   1.262       .  A
C314        C521   1.482       .  S
O315        C325   1.275       .  A
O315       Al317   1.971       .  S
O316        C329   1.257       .  A
O316       Al326   1.909       .  S
Al317       O330   1.897       .  S
Al317       O327   1.884       .  S
Al317       O322   1.777       .  S
O318        C325   1.259       .  A
O318       Al326   1.878       .  S
O319        C328   1.254       .  A
O319       Al326   1.855       .  S
O320       Al326   1.925       .  S
O321        C328   1.269       .  A
O322       Al326   1.779       .  S
O323        C324   1.269       .  A
C324        C425   1.530       .  S
C325        C365   1.486       .  S
C328        C812   1.463       .  S
C329        O330   1.262       .  A
C329        C353   1.459       .  S
O331        C346   1.269       .  A
O331       Al339   1.966       .  S
C332        O342   1.265       .  A
C332        O333   1.273       .  A
C332        C377   1.484       .  S
O333      Al1263   1.947   1_545  S
O334        C336   1.270   1_545  A
O334      Al1263   1.913   1_545  S
Al335       O343   1.940       .  S
Al335       O345   1.895       .  S
Al335      O1261   1.943       .  S
Al335      O1262   1.904       .  S
Al335       O344   1.786       .  S
C336       O1277   1.257       .  A
C336        C449   1.460   1_565  S
O337       C1275   1.265       .  A
O337       Al339   1.958       .  S
O338        C351   1.266       .  A
O338       Al348   1.907       .  S
Al339       O352   1.871       .  S
Al339       O349   1.865       .  S
Al339       O344   1.792       .  S
O340       C1275   1.243       .  A
O340       Al348   1.840       .  S
O341        C350   1.247       .  A
O341       Al348   1.865       .  S
O342      Al1276   1.900   1_545  S
O343        C350   1.262       .  A
O344       Al348   1.797       .  S
O345        C346   1.254       .  A
C346        C476   1.526       .  S
C347       O1265   1.264       .  A
C347       O1268   1.247       .  A
C347        C413   1.500   1_565  S
Al348      O1270   1.914       .  S
O349       C1264   1.257       .  A
C350        C884   1.460       .  S
C351        O352   1.264       .  A
C351        C356   1.453       .  S
C353        C354   1.398       .  A
C353        C358   1.409       .  A
C354        C355   1.398       .  A
C354        H359   1.085       .  S
C355        C356   1.408       .  A
C355        C362   1.443       .  S
C356        C357   1.399       .  A
C357        C358   1.395       .  A
C357        H360   1.086       .  S
C358        C361   1.443       .  S
C361        N363   1.156       .  T
C362        N364   1.157       .  T
C365        C366   1.411       .  A
C365        C370   1.404       .  A
C366        C367   1.405       .  A
C366        H371   1.085       .  S
C367        C368   1.410       .  A
C367        C374   1.444       .  S
C368        C369   1.415       .  A
C369        C370   1.404       .  A
C369        H372   1.085       .  S
C370        C373   1.443       .  S
C373        N375   1.157       .  T
C374        N376   1.157       .  T
C377        C378   1.402       .  A
C377        C382   1.410       .  A
C378        C379   1.399       .  A
C378        H383   1.083       .  S
C379        C380   1.416       .  A
C379        C386   1.445       .  S
C380        C381   1.411       .  A
C381        C382   1.407       .  A
C381        H384   1.085       .  S
C382        C385   1.443       .  S
C385        N387   1.157       .  T
C386        N388   1.158       .  T
C389        C390   1.399       .  A
C389       C2250   1.404       .  A
C390       C2247   1.388       .  A
C390        H395   1.086       .  S
C391        C392   1.404       .  A
C391       C2246   1.389   1_455  A
C391        C398   1.445       .  S
C392        C393   1.395       .  A
C393        C394   1.386       .  A
C393        H396   1.085       .  S
C394       C2245   1.405   1_455  A
C394        C397   1.443       .  S
C397        N399   1.157       .  T
C398        N400   1.157       .  T
C401        C402   1.410       .  A
C401        C406   1.409       .  A
C402        C403   1.411       .  A
C402        H407   1.085       .  S
C403        C404   1.415       .  A
C403        C410   1.443       .  S
C404        C405   1.415       .  A
C405        C406   1.410       .  A
C405        H408   1.084       .  S
C406        C409   1.443       .  S
C409        N411   1.157       .  T
C410        N412   1.157       .  T
C413        C414   1.417       .  A
C413        C418   1.413       .  A
C414        C415   1.399       .  A
C414        H419   1.084       .  S
C415        C416   1.405       .  A
C415        C422   1.445       .  S
C416        C417   1.410       .  A
C417        C418   1.407       .  A
C417        H420   1.085       .  S
C418        C421   1.442       .  S
C421        N423   1.157   1_545  T
C422        N424   1.157       .  T
C425        C426   1.415       .  A
C425        C430   1.423       .  A
C426        C427   1.421       .  A
C426        H431   1.084       .  S
C427        C428   1.422       .  A
C427        C434   1.443       .  S
C428        C429   1.412       .  A
C429        C430   1.416       .  A
C429        H432   1.084       .  S
C430        C433   1.443       .  S
C433        N435   1.157       .  T
C434        N436   1.157       .  T
C437        C442   1.405       .  A
C437       C1366   1.406   1_545  A
C438       C1365   1.406       .  A
C438       C1367   1.395       .  A
C438        H443   1.086       .  S
C439        C440   1.404   1_565  A
C439       C1366   1.395       .  A
C439       C1374   1.444       .  S
C440        C441   1.407       .  A
C441        C442   1.395       .  A
C441        H444   1.081       .  S
C442        C445   1.444       .  S
C445        N447   1.157       .  T
C446       C1367   1.444       .  S
C446        N448   1.157       .  T
C449        C454   1.405       .  A
C449       C1378   1.400   1_545  A
C450       C1377   1.398       .  A
C450       C1379   1.391       .  A
C450        H455   1.087       .  S
C451        C452   1.408   1_565  A
C451       C1378   1.397       .  A
C451       C1386   1.439       .  S
C452        C453   1.409       .  A
C453        C454   1.398       .  A
C453        H456   1.086       .  S
C454        C457   1.444       .  S
C457        N459   1.157       .  T
C458       C1379   1.439       .  S
C458        N460   1.155       .  T
C461        C462   1.406   1_545  A
C461        C466   1.412       .  A
C462        C463   1.408   1_565  A
C462       H1395   1.085       .  S
C463        C464   1.413       .  A
C463       C1398   1.443   1_545  S
C464        C465   1.408       .  A
C465        C466   1.406       .  A
C465        H468   1.085       .  S
C466        C469   1.444       .  S
H467       C1390   1.085       .  S
C469       N2327   1.157       .  T
C470       C1391   1.444       .  S
C470        N472   1.157       .  T
N471       C2325   1.157       .  T
C473        C474   1.407       .  A
C473        C478   1.424       .  A
C474        C475   1.413       .  A
C474        H479   1.085       .  S
C475        C476   1.428       .  A
C475        C482   1.445       .  S
C476        C477   1.410       .  A
C477        C478   1.419       .  A
C477        H480   1.084       .  S
C478        C481   1.443       .  S
C481        N483   1.157       .  T
C482        N484   1.158       .  T
C485        C486   1.408       .  A
C485        C490   1.408       .  A
C486        C487   1.398       .  A
C486        H491   1.085       .  S
C487        C488   1.408       .  A
C487        C494   1.445       .  S
C488        C489   1.404       .  A
C489        C490   1.396       .  A
C489        H492   1.086       .  S
C490        C493   1.444       .  S
C493        N495   1.157       .  T
C494        N496   1.157       .  T
C497        C498   1.397   1_455  A
C497        C502   1.401       .  A
C498       C2355   1.383       .  A
C498        H503   1.086       .  S
C499        C500   1.407       .  A
C499       C2354   1.383       .  A
C499        C506   1.446       .  S
C500       C2357   1.403       .  A
C501        C502   1.391       .  A
C501       C2356   1.403   1_455  A
C501        H504   1.086       .  S
C502        C505   1.439       .  S
C505        N507   1.156       .  T
C506        N508   1.157       .  T
C509        C510   1.414       .  A
C509        C514   1.412       .  A
C510        C511   1.405       .  A
C510        H515   1.084       .  S
C511        C512   1.408       .  A
C511        C518   1.445       .  S
C512        C513   1.409       .  A
C513        C514   1.405       .  A
C513        H516   1.084       .  S
C514        C517   1.443       .  S
C517        N519   1.157       .  T
C518        N520   1.158       .  T
C521        C522   1.405       .  A
C521        C526   1.421       .  A
C522        C523   1.397       .  A
C522        H527   1.085       .  S
C523        C524   1.409       .  A
C523        C530   1.444       .  S
C524        C525   1.397       .  A
C525        C526   1.398       .  A
C525        H528   1.085       .  S
C526        C529   1.445       .  S
C529        N531   1.157       .  T
C530        N532   1.157       .  T
C533        C534   1.396       .  A
C533        C538   1.406       .  A
C534        C535   1.389       .  A
C534        H539   1.083       .  S
C535        C536   1.407       .  A
C535        C542   1.442       .  S
C536        C537   1.398       .  A
C537        C538   1.391       .  A
C537        H540   1.085       .  S
C538        C541   1.442       .  S
C541        N543   1.156       .  T
C542        N544   1.156       .  T
C545        C546   1.408       .  A
C545        C550   1.410       .  A
C546        C547   1.405       .  A
C546        H551   1.085       .  S
C547        C548   1.413       .  A
C547        C554   1.444       .  S
C548       C2060   1.497       .  S
C548        C549   1.412       .  A
C549        C550   1.407       .  A
C549        H552   1.085       .  S
C550        C553   1.444       .  S
C553        N555   1.157       .  T
C554       N2412   1.157       .  T
N556       C2410   1.157       .  T
C557        C558   1.400       .  A
C557        C562   1.425       .  A
C558        C559   1.405       .  A
C558        H563   1.086       .  S
C559        C560   1.424       .  A
C559        C566   1.444       .  S
C560        C561   1.400       .  A
C561        C562   1.406       .  A
C561        H564   1.086       .  S
C562        C565   1.445       .  S
C565        N567   1.158       .  T
C566        N568   1.157       .  T
C569        C570   1.399       .  A
C569        C574   1.408       .  A
C570        C571   1.397       .  A
C570        H575   1.088       .  S
C571        C572   1.422       .  A
C571        C578   1.445       .  S
C572        C573   1.408       .  A
C573        C574   1.403       .  A
C573        H576   1.086       .  S
C574        C577   1.443       .  S
C577        N579   1.157       .  T
C578        N580   1.157       .  T
C581        C582   1.404       .  A
C581        C586   1.408       .  A
C582        C583   1.398       .  A
C582        H587   1.085       .  S
C583        C584   1.411       .  A
C583        C590   1.444       .  S
C584        C585   1.408       .  A
C585        C586   1.396       .  A
C585        H588   1.085       .  S
C586        C589   1.445       .  S
C589        N591   1.157       .  T
C590        N592   1.157       .  T
C593        C594   1.400       .  A
C593       C2454   1.408       .  A
C594       C2451   1.392       .  A
C594        H599   1.086       .  S
C595        C596   1.408   1_655  A
C595       C2450   1.391       .  A
C595       C2458   1.444       .  S
C596        C597   1.399       .  A
C597        C598   1.398       .  A
C597        H600   1.085       .  S
C598       C2449   1.407   1_455  A
C598        C601   1.442       .  S
C601        N603   1.157       .  T
C602       C2451   1.443       .  S
C602        N604   1.157       .  T
C605        C606   1.413   1_554  A
C605        C610   1.421   1_554  A
C606        C607   1.416       .  A
C606        H611   1.084       .  S
C607        C608   1.422       .  A
C607        C614   1.444       .  S
C608        C609   1.410       .  A
C609        C610   1.412       .  A
C609        H612   1.084       .  S
C610        C613   1.443   1_556  S
C613        N615   1.157       .  T
C614        N616   1.158       .  T
C617        C618   1.407   1_556  A
C617        C622   1.421   1_556  A
C618        C619   1.398       .  A
C618        H623   1.084       .  S
C619        C620   1.405       .  A
C619        C626   1.443       .  S
C620        C621   1.395       .  A
C621        C622   1.396       .  A
C621        H624   1.085       .  S
C622        C625   1.443       .  S
C625        N627   1.157   1_554  T
C626        N628   1.157       .  T
C629        C630   1.404       .  A
C629        C634   1.407       .  A
C630        C631   1.398       .  A
C630        H635   1.083       .  S
C631        C632   1.412       .  A
C631        C638   1.444       .  S
C632        C633   1.413       .  A
C633        C634   1.407       .  A
C633        H636   1.085       .  S
C634        C637   1.443       .  S
C637        N639   1.157       .  T
C638        N640   1.157       .  T
C641        C642   1.414       .  A
C641        C646   1.412       .  A
C642        C643   1.409       .  A
C642        H647   1.085       .  S
C643        C644   1.408       .  A
C643        C650   1.443       .  S
C644        C645   1.410       .  A
C645        C646   1.406       .  A
C645        H648   1.085       .  S
C646        C649   1.443       .  S
C649        N651   1.157       .  T
C650        N652   1.157       .  T
C653       C1037   1.531   1_545  S
C653        C658   1.423       .  A
C653       C1582   1.412   1_545  A
C654       C1581   1.412       .  A
C654       C1583   1.418   1_556  A
C654        H659   1.084       .  S
C655        C656   1.422       .  A
C655       C1582   1.419   1_544  A
C655       C1590   1.443   1_545  S
C656        C657   1.414   1_554  A
C657        C658   1.420       .  A
C657        H660   1.084       .  S
C658        C661   1.444       .  S
C661        N663   1.158       .  T
C662       C1583   1.443       .  S
C662        N664   1.157       .  T
C665        C666   1.409       .  A
C665        C670   1.413       .  A
C666        C667   1.399       .  A
C666        H671   1.085       .  S
C667        C668   1.405       .  A
C667        C674   1.444       .  S
C668        C669   1.401       .  A
C669        C670   1.392       .  A
C669        H672   1.086       .  S
C670        C673   1.442       .  S
C673        N675   1.156   1_554  T
C674        N676   1.157       .  T
C677        C678   1.396       .  A
C677        C682   1.407       .  A
C678        C679   1.385       .  A
C678        H683   1.087       .  S
C679        C680   1.406       .  A
C679        C686   1.443       .  S
C680        C681   1.398       .  A
C681        C682   1.393       .  A
C681        H684   1.085       .  S
C682        C685   1.443       .  S
C685        N687   1.157       .  T
C686        N688   1.157       .  T
C689        C690   1.415       .  A
C689       C1622   1.411       .  A
C690        C691   1.407       .  A
C690        H695   1.084       .  S
C691       C1620   1.406       .  A
C691       C2554   1.443       .  S
C692       C2005   1.486       .  S
C692        C693   1.410       .  A
C692       C1619   1.405       .  A
C693        C694   1.402       .  A
C693        H696   1.085       .  S
C694       C1617   1.410   1_545  A
C694        C697   1.444   1_545  S
C697        N699   1.157       .  T
C698       C2547   1.443       .  S
C698        N700   1.157       .  T
C701        C702   1.406       .  A
C701        C706   1.408       .  A
C702        C703   1.405       .  A
C702        H707   1.087       .  S
C703        C704   1.415       .  A
C703        C710   1.443       .  S
C704        C705   1.414       .  A
C705        C706   1.411       .  A
C705        H708   1.087       .  S
C706        C709   1.440       .  S
C709        N711   1.157       .  T
C710        N712   1.157       .  T
C713        C714   1.412       .  A
C713        C718   1.419       .  A
C714        C715   1.419       .  A
C714        H719   1.084       .  S
C715        C716   1.421       .  A
C715        C722   1.443       .  S
C716        C717   1.413       .  A
C717        C718   1.414       .  A
C717        H720   1.084       .  S
C718        C721   1.444       .  S
C721        N723   1.157       .  T
C722        N724   1.157       .  T
C725        C726   1.397       .  A
C725        C730   1.411       .  A
C726        C727   1.397       .  A
C726        H731   1.085       .  S
C727        C728   1.420       .  A
C727        C734   1.444       .  S
C728        C729   1.404       .  A
C729        C730   1.397       .  A
C729        H732   1.085       .  S
C730        C733   1.443       .  S
C733        N735   1.157       .  T
C734        N736   1.157   1_545  T
C737        C742   1.421       .  A
C737       C1666   1.406       .  A
C738        C739   1.396       .  A
C738       C1665   1.406       .  A
C738        H743   1.085       .  S
C739       C1668   1.408       .  A
C739        C746   1.444       .  S
C740       C1036   1.462       .  S
C740        C741   1.398       .  A
C740       C1667   1.409       .  A
C741        C742   1.397       .  A
C741        H744   1.086       .  S
C742        C745   1.445       .  S
C745        N747   1.157       .  T
C746        N748   1.157       .  T
C749        C750   1.413       .  A
C749        C754   1.424       .  A
C750        C751   1.419       .  A
C750        H755   1.084       .  S
C751        C752   1.423       .  A
C751        C758   1.443       .  S
C752        C753   1.413       .  A
C753        C754   1.418       .  A
C753        H756   1.085       .  S
C754        C757   1.444       .  S
C757        N759   1.158       .  T
C758        N760   1.157       .  T
C761        C762   1.403       .  A
C761        C766   1.405       .  A
C762        C763   1.393       .  A
C762        H767   1.078       .  S
C763        C764   1.409       .  A
C763        C770   1.445       .  S
C764        C765   1.408       .  A
C765        C766   1.397       .  A
C765        H768   1.083       .  S
C766        C769   1.444       .  S
C769        N771   1.157       .  T
C770        N772   1.157       .  T
C773        C774   1.405       .  A
C773        C778   1.410       .  A
C774        C775   1.392       .  A
C774        H779   1.084       .  S
C775        C776   1.405       .  A
C775        C782   1.444       .  S
C776        C777   1.405       .  A
C777        C778   1.396       .  A
C777        H780   1.085       .  S
C778        C781   1.444       .  S
C781        N783   1.157       .  T
C782        N784   1.157       .  T
C785        C786   1.400       .  A
C785        C790   1.406       .  A
C786        C787   1.389       .  A
C786        H791   1.085       .  S
C787        C788   1.401       .  A
C787        C794   1.442       .  S
C788        C789   1.396       .  A
C789        C790   1.380       .  A
C789        H792   1.083       .  S
C790        C793   1.447       .  S
C793        N795   1.157       .  T
C794        N796   1.156       .  T
C797        C802   1.420       .  A
C797       C2654   1.408       .  A
C798        C799   1.414   1_655  A
C798       C2653   1.409       .  A
C798        H803   1.083       .  S
C799        C800   1.425       .  A
C799        C806   1.444       .  S
C800        C801   1.407       .  A
C801       C2658   1.412       .  A
C801        H804   1.083       .  S
C802       C2657   1.412       .  A
C802        C805   1.444       .  S
C805        N807   1.157       .  T
C806        N808   1.158       .  T
C809        C810   1.403       .  A
C809        C814   1.410       .  A
C810        C811   1.394       .  A
C810        H815   1.085       .  S
C811        C812   1.408       .  A
C811        C818   1.444       .  S
C812        C813   1.405       .  A
C813        C814   1.396       .  A
C813        H816   1.085       .  S
C814        C817   1.445       .  S
C817        N819   1.157       .  T
C818        N820   1.157       .  T
C821        C822   1.403       .  A
C821        C826   1.408       .  A
C822        C823   1.395       .  A
C822        H827   1.086       .  S
C823        C824   1.410       .  A
C823        C830   1.443       .  S
C824        C825   1.403       .  A
C825        C826   1.398       .  A
C825        H828   1.086       .  S
C826        C829   1.443       .  S
C829        N831   1.157       .  T
C830        N832   1.157       .  T
C833        C834   1.413       .  A
C833        C838   1.414       .  A
C834        C835   1.407       .  A
C834        H839   1.085       .  S
C835        C836   1.406       .  A
C835        C842   1.442       .  S
C836        C837   1.406       .  A
C837        C838   1.405       .  A
C837        H840   1.082       .  S
C838        C841   1.444       .  S
C841        N843   1.157       .  T
C842        N844   1.157       .  T
C845        C846   1.412       .  A
C845        C850   1.416       .  A
C846        C847   1.401       .  A
C846        H851   1.085       .  S
C847        C848   1.407       .  A
C847        C854   1.444       .  S
C848        C849   1.405       .  A
C849        C850   1.403       .  A
C849        H852   1.086       .  S
C850        C853   1.444       .  S
C853        N855   1.157       .  T
C854        N856   1.157       .  T
C857        C944   1.522   1_545  S
C857        C858   1.409       .  A
C857       C1790   1.424   1_545  A
C858        C859   1.414       .  A
C858        H863   1.084       .  S
C859       C2716   1.424   1_455  A
C859        C866   1.444       .  S
C860        C861   1.411   1_545  A
C860       C2715   1.423       .  A
C861       C3646   1.415       .  A
C861       H1792   1.084       .  S
C862       C1785   1.425       .  A
C862       C3645   1.413       .  A
C862        C865   1.444       .  S
H864       C1789   1.084       .  S
C865        N867   1.157       .  T
C866        N868   1.157   1_455  T
C869        C870   1.406       .  A
C869       C1802   1.418       .  A
C870        C871   1.397       .  A
C870        H875   1.085       .  S
C871        C872   1.408       .  A
C871        C878   1.445       .  S
C872        C948   1.461       .  S
C872       C1801   1.398       .  A
C873        C874   1.398       .  A
C873       C1800   1.397       .  A
C873        H876   1.086       .  S
C874       C1797   1.421       .  A
C874        C877   1.445       .  S
C877        N879   1.157       .  T
C878        N880   1.157   1_545  T
C881        C882   1.406       .  A
C881        C886   1.409       .  A
C882        C883   1.399       .  A
C882       H1815   1.085       .  S
C883        C884   1.406       .  A
C883       C1818   1.443       .  S
C884        C885   1.406       .  A
C885        C886   1.401       .  A
C885        H888   1.085       .  S
C886        C889   1.444       .  S
H887       C1810   1.085       .  S
C889        N891   1.157       .  T
C890       C1811   1.443   1_545  S
C890        N892   1.157       .  T
C893        C894   1.395       .  A
C893        C898   1.409       .  A
C894       C2751   1.390   1_455  A
C894        H899   1.084       .  S
C895        C896   1.407       .  A
C895       C2750   1.390       .  A
C895        C902   1.439       .  S
C896       C2753   1.398       .  A
C897        C898   1.394       .  A
C897       C2752   1.398   1_455  A
C897        H900   1.085       .  S
C898        C901   1.441       .  S
C901        N903   1.156       .  T
C902        N904   1.155       .  T
C905        C906   1.404       .  A
C905        C910   1.426       .  A
C906       C1835   1.411       .  A
C906        H911   1.085       .  S
C907        C908   1.422       .  A
C907       C1834   1.410       .  A
C907        C914   1.444       .  S
C908        C909   1.400       .  A
C909       C1838   1.409       .  A
C909        H912   1.086       .  S
C910       C1837   1.411       .  A
C910        C913   1.444       .  S
C913        N915   1.157       .  T
C914        N916   1.157       .  T
C917        C918   1.413       .  A
C917        C922   1.413       .  A
C918        C919   1.402       .  A
C918        H923   1.084       .  S
C919        C920   1.405       .  A
C919        C926   1.443       .  S
C920        C921   1.407       .  A
C921        C922   1.400       .  A
C921        H924   1.083       .  S
C922        C925   1.445       .  S
C925        N927   1.158       .  T
C926        N928   1.157       .  T
O929        C944   1.269       .  A
O929       Al937   1.950       .  S
C930        O940   1.259       .  A
C930        O931   1.272       .  A
C930       C1833   1.510       .  S
O931       Al933   1.953       .  S
O932        C934   1.270       .  A
O932       Al933   1.933       .  S
Al933       O942   1.779       .  S
C934        O947   1.260       .  A
C934       C1809   1.477       .  S
O935        C945   1.274       .  A
O935       Al937   1.959       .  S
O936        C949   1.256       .  A
O936       Al946   1.911       .  S
Al937       O950   1.883       .  S
Al937       O947   1.880       .  S
Al937       O942   1.769       .  S
O938        C945   1.260       .  A
O938       Al946   1.879       .  S
O939        C948   1.255   1_565  A
O939       Al946   1.858       .  S
O940       Al946   1.909       .  S
O942       Al946   1.776       .  S
C945       C1845   1.487       .  S
C949        O950   1.259       .  A
C949       C1821   1.451       .  S
O951        C966   1.267       .  A
O951       Al959   1.952       .  S
C952        O962   1.261       .  A
C952        O953   1.267       .  A
C952       C1761   1.502       .  S
O953       Al955   1.932       .  S
O954        C956   1.271       .  A
O954       Al955   1.930       .  S
Al955       O963   1.949       .  S
Al955       O965   1.943       .  S
Al955       O964   1.785       .  S
C956        O969   1.257       .  A
C956       C1737   1.462       .  S
O957        C967   1.270       .  A
O957       Al959   1.953       .  S
O958        C971   1.260       .  A
O958       Al968   1.915       .  S
Al959       O972   1.873       .  S
Al959       O969   1.858       .  S
Al959       O964   1.769       .  S
O960        C967   1.262       .  A
O960       Al968   1.896       .  S
O961        C970   1.254       .  A
O961       Al968   1.852       .  S
O962       Al968   1.907       .  S
O963        C970   1.270       .  A
O964       Al968   1.776       .  S
O965        C966   1.270       .  A
C966       C1725   1.526       .  S
C967       C1773   1.496       .  S
C970       C1749   1.462       .  S
C971        O972   1.260       .  A
C971       C1824   1.449       .  S
O973        C988   1.258       .  A
O973       Al981   1.884       .  S
C974        O984   1.267       .  A
C974        O975   1.254       .  A
C974       C1848   1.484       .  S
O975       Al977   1.885       .  S
O976        C978   1.261       .  A
O976       Al977   1.892       .  S
Al977       O985   1.840       .  S
Al977       O987   1.877       .  S
Al977       O986   1.777       .  S
C978        O991   1.277       .  A
C978       C1764   1.489       .  S
O979        C989   1.261       .  A
O979       Al981   1.877       .  S
O980        C993   1.269       .  A
O980       Al990   1.941       .  S
Al981       O994   1.966       .  S
Al981       O991   1.987       .  S
Al981       O986   1.769       .  S
O982        C989   1.269       .  A
O982       Al990   1.917       .  S
O983        C992   1.272       .  A
O983       Al990   1.956       .  S
O984       Al990   1.939       .  S
O985        C992   1.253       .  A
O986       Al990   1.776       .  S
O987        C988   1.252       .  A
C988       C1716   1.430       .  S
C989       C1701   1.470       .  S
C992       C1689   1.464       .  S
C993        O994   1.271       .  A
C993       C1680   1.530       .  S
O995       C1010   1.257       .  A
O995      Al1003   1.859       .  S
C996       C1776   1.485       .  S
O997       Al999   1.907       .  S
O998       C1000   1.263       .  A
O998       Al999   1.897       .  S
Al999      O1007   1.850       .  S
Al999      O1009   1.882       .  S
Al999      O1008   1.778       .  S
C1000      O1013   1.276       .  A
C1000      C1836   1.505       .  S
O1001      C1011   1.262       .  A
O1001     Al1003   1.876       .  S
O1002      C1015   1.271       .  A
O1002     Al1012   1.943       .  S
Al1003     O1016   1.963       .  S
Al1003     O1013   1.980       .  S
Al1003     O1008   1.763       .  S
O1004      C1011   1.267       .  A
O1004     Al1012   1.920       .  S
O1005      C1014   1.269       .  A
O1005     Al1012   1.953       .  S
O1006     Al1012   1.917       .  S
O1007      C1014   1.250       .  A
O1008     Al1012   1.781       .  S
O1009      C1010   1.254       .  A
C1010      C1713   1.436       .  S
C1011      C1665   1.478       .  S
C1014      C1653   1.462       .  S
C1015      O1016   1.272       .  A
C1015      C1641   1.527       .  S
O1017      C1032   1.257       .  A
O1017     Al1025   1.880       .  S
C1018      O1028   1.271       .  A
C1018      O1019   1.260       .  A
C1018      C1617   1.493       .  S
O1019     Al1021   1.905       .  S
O1020      C1022   1.259       .  A
O1020     Al1021   1.884       .  S
Al1021     O1029   1.858       .  S
Al1021     O1031   1.897       .  S
Al1021     O1030   1.771       .  S
C1022      O1035   1.280       .  A
C1022      C1629   1.489       .  S
O1023      C1033   1.258       .  A
O1023     Al1025   1.871       .  S
Al1025     O1038   1.985       .  S
Al1025     O1035   1.993       .  S
Al1025     O1030   1.764       .  S
O1026      C1033   1.269       .  A
O1026     Al1034   1.932       .  S
O1028     Al1034   1.937       .  S
O1029      C1036   1.253   1_565  A
O1030     Al1034   1.779       .  S
O1031      C1032   1.254       .  A
C1032      C1608   1.442       .  S
C1033      C1593   1.478       .  S
C1037      O1038   1.277       .  A
O1039      C1054   1.259       .  A
O1039     Al1047   1.859       .  S
C1040      O1050   1.265       .  A
C1040      O1041   1.259       .  A
C1040      C1560   1.490       .  S
O1041     Al1043   1.899       .  S
O1042      C1044   1.259       .  A
O1042     Al1043   1.879       .  S
Al1043     O1051   1.852       .  S
Al1043     O1053   1.903       .  S
Al1043     O1052   1.780       .  S
C1044      O1057   1.273       .  A
C1044      C1572   1.492       .  S
O1045      C1055   1.266       .  A
O1045     Al1047   1.892       .  S
O1046      C1059   1.267       .  A
O1046     Al1056   1.929       .  S
Al1047     O1060   1.949       .  S
Al1047     O1057   1.967       .  S
Al1047     O1052   1.774       .  S
O1048      C1055   1.265       .  A
O1048     Al1056   1.902       .  S
O1049      C1058   1.265       .  A
O1049     Al1056   1.934       .  S
O1050     Al1056   1.912       .  S
O1051      C1058   1.252       .  A
O1052     Al1056   1.776       .  S
O1053      C1054   1.256       .  A
C1054      C1605   1.446       .  S
C1055      C1545   1.484       .  S
C1058      C1704   1.458       .  S
C1059      O1060   1.268       .  A
C1059      C1536   1.518       .  S
O1061      C1076   1.277       .  A
O1061     Al1069   1.979       .  S
C1062      C1569   1.491       .  S
O1063     Al1065   1.935       .  S
O1064      C1066   1.265       .  A
O1064     Al1065   1.917       .  S
Al1065     O1073   1.949       .  S
Al1065     O1075   1.927       .  S
Al1065     O1074   1.784       .  S
C1066      O1079   1.262       .  A
C1066      C1797   1.485       .  S
O1067      C1077   1.278       .  A
O1067     Al1069   1.980       .  S
O1068      C1081   1.254       .  A
O1068     Al1078   1.895       .  S
Al1069     O1082   1.895       .  S
Al1069     O1079   1.889       .  S
Al1069     O1074   1.776       .  S
O1070      C1077   1.260       .  A
O1070     Al1078   1.878       .  S
O1071      C1080   1.253       .  A
O1071     Al1078   1.852       .  S
O1072     Al1078   1.922       .  S
O1073      C1080   1.268       .  A
O1074     Al1078   1.775       .  S
O1075      C1076   1.270       .  A
C1076      C1677   1.529       .  S
C1077      C3476   1.496   1_455  S
C1080      C1512   1.463       .  S
C1081      O1082   1.261       .  A
C1081      C1524   1.455       .  S
O1083      C1098   1.269       .  A
O1083     Al1091   1.947       .  S
C1084      O1094   1.269       .  A
C1084      O1085   1.278       .  A
C1084      C1632   1.506       .  S
O1085     Al1087   1.965       .  S
O1086      C1088   1.269       .  A
O1086     Al1087   1.918       .  S
Al1087     O1095   1.945       .  S
Al1087     O1097   1.927       .  S
Al1087     O1096   1.782       .  S
C1088      O1101   1.253       .  A
C1088      C1752   1.467       .  S
O1089      C2955   1.262       .  A
O1089     Al1091   1.939       .  S
O1090      C1103   1.263       .  A
O1090     Al1100   1.903       .  S
Al1091     O1104   1.882       .  S
Al1091     O1101   1.857       .  S
Al1091     O1096   1.786       .  S
O1092      C2955   1.248       .  A
O1092     Al1100   1.862       .  S
O1093      C1102   1.245       .  A
O1093     Al1100   1.851       .  S
O1094     Al1100   1.903       .  S
O1095      C1102   1.263       .  A
O1096     Al1100   1.796       .  S
O1097      C1098   1.265       .  A
C1098      C1644   1.524       .  S
C1099      O2945   1.262   1_455  A
C1099      O2948   1.248   1_455  A
C1099      C1557   1.474       .  S
C1102      C1497   1.463       .  S
C1103      O1104   1.264       .  A
C1103      C1521   1.451       .  S
O1105      C1120   1.273       .  A
O1105     Al1113   1.958       .  S
C1106      O1116   1.265       .  A
C1106      O1107   1.268       .  A
C1106      C1473   1.485       .  S
O1107     Al1109   1.922       .  S
O1108      C1110   1.267   1_554  A
O1108     Al1109   1.925       .  S
Al1109     O1117   1.954       .  S
Al1109     O1119   1.929       .  S
Al1109     O1118   1.776       .  S
C1110      O1123   1.263   1_556  A
C1110      C1500   1.489       .  S
O1111      C1121   1.276       .  A
O1111     Al1113   1.974       .  S
O1112      C1125   1.258       .  A
O1112     Al1122   1.919       .  S
Al1113     O1126   1.859       .  S
Al1113     O1123   1.891       .  S
Al1113     O1118   1.765       .  S
O1114      C1121   1.257       .  A
O1114     Al1122   1.872       .  S
O1115      C1124   1.250       .  A
O1115     Al1122   1.848       .  S
O1116     Al1122   1.932       .  S
O1117      C1124   1.269       .  A
O1118     Al1122   1.774       .  S
O1119      C1120   1.271       .  A
C1120      C1533   1.518   1_554  S
C1121      C1488   1.491       .  S
C1124      C1452   1.462       .  S
C1125      O1126   1.256       .  A
C1125      C1461   1.458       .  S
O1127      C1142   1.260       .  A
O1127     Al1135   1.898       .  S
C1128      O1138   1.266       .  A
C1128      O1129   1.257       .  A
C1128      C1440   1.493       .  S
O1129     Al1131   1.895       .  S
O1130      C1132   1.266       .  A
O1130     Al1131   1.896       .  S
Al1131     O1139   1.856       .  S
Al1131     O1141   1.883       .  S
Al1131     O1140   1.780       .  S
C1132      O1145   1.273       .  A
C1132      C3332   1.500   1_455  S
O1133      C1143   1.261       .  A
O1133     Al1135   1.882       .  S
O1134      C1147   1.265       .  A
O1134     Al1144   1.925       .  S
Al1135     O1148   1.941       .  S
Al1135     O1145   1.958       .  S
Al1135     O1140   1.769       .  S
O1136      C1143   1.268       .  A
O1136     Al1144   1.913       .  S
O1137      C1146   1.268       .  A
O1137     Al1144   1.939       .  S
O1138     Al1144   1.931       .  S
O1139      C1146   1.255       .  A
O1140     Al1144   1.782       .  S
O1141      C1142   1.251       .  A
C1142      C1425   1.442       .  S
C1143      C1416   1.471       .  S
C1146      C1548   1.452       .  S
C1147      O1148   1.267       .  A
C1147      C1401   1.516       .  S
O1149      C1164   1.275       .  A
O1149     Al1157   1.984       .  S
C1150      O1160   1.267       .  A
C1150      O1151   1.268       .  A
C1150      C1392   1.503       .  S
O1151     Al1153   1.928       .  S
O1152      C1154   1.272   1_554  A
O1152     Al1153   1.943       .  S
Al1153     O1161   1.952       .  S
Al1153     O1163   1.929       .  S
Al1153     O1162   1.782       .  S
C1154      O1167   1.256   1_556  A
C1154      C1509   1.474       .  S
O1155      C1165   1.273       .  A
O1155     Al1157   1.972       .  S
O1156      C1169   1.263       .  A
O1156     Al1166   1.928       .  S
Al1157     O1170   1.870       .  S
Al1157     O1167   1.858       .  S
Al1157     O1162   1.768       .  S
O1158      C1165   1.256       .  A
O1158     Al1166   1.885       .  S
O1159      C1168   1.251       .  A
O1159     Al1166   1.847       .  S
O1160     Al1166   1.936       .  S
O1161      C1168   1.270       .  A
O1162     Al1166   1.773       .  S
O1163      C1164   1.268       .  A
C1164      C1584   1.532       .  S
C1165      C1437   1.483       .  S
C1168      C1380   1.463       .  S
C1169      O1170   1.258       .  A
C1169      C1464   1.451       .  S
O1171      C1186   1.259       .  A
O1171     Al1179   1.875       .  S
C1172      O1182   1.269       .  A
C1172      O1173   1.254       .  A
C1172      C1485   1.490       .  S
O1174      C3032   1.260       .  A
Al1175     O1183   1.840       .  S
Al1175     O1185   1.896       .  S
Al1175     O1184   1.774       .  S
C1176      O3030   1.260   1_455  A
C1176      C1389   1.497       .  S
O1177     Al1179   1.874       .  S
O1178      C1191   1.268       .  A
O1178     Al1188   1.937       .  S
Al1179     O1192   1.967       .  S
Al1179     O3045   1.985       .  S
Al1179     O1184   1.772       .  S
O1180      C1187   1.270       .  A
O1181      C1190   1.270       .  A
O1181     Al1188   1.949       .  S
O1183      C1190   1.254       .  A
O1184     Al1188   1.776       .  S
O1185      C1186   1.258       .  A
C1186      C1428   1.450       .  S
C1187      C1365   1.458       .  S
O1189     Al3035   1.984   1_455  S
C1190      C1596   1.461       .  S
C1191      O1192   1.271       .  A
C1191      C1356   1.528       .  S
O1193      C1208   1.259       .  A
O1193     Al1201   1.882       .  S
C1194      O1204   1.265       .  A
C1194      O1195   1.259       .  A
C1194      C1344   1.486       .  S
O1195     Al1197   1.903       .  S
O1196      C1198   1.263       .  A
O1196     Al1197   1.896       .  S
Al1197     O1205   1.841       .  S
Al1197     O1207   1.901       .  S
Al1197     O1206   1.782       .  S
C1198      O1211   1.273       .  A
C1198      C1329   1.500       .  S
O1199      C1209   1.266       .  A
O1199     Al1201   1.887       .  S
O1200      C1213   1.266       .  A
O1200     Al1210   1.930       .  S
Al1201     O1214   1.942       .  S
Al1201     O1211   1.972       .  S
Al1201     O1206   1.774       .  S
O1202      C1209   1.266       .  A
O1202     Al1210   1.907       .  S
O1203      C1212   1.264       .  A
O1203     Al1210   1.928       .  S
O1204     Al1210   1.918       .  S
O1205      C1212   1.254       .  A
O1206     Al1210   1.787       .  S
O1207      C1208   1.256       .  A
C1208      C1317   1.444       .  S
C1209      C1656   1.478       .  S
C1212      C1368   1.457       .  S
C1213      O1214   1.265       .  A
C1213      C1788   1.516       .  S
O1215      C1230   1.258       .  A
O1215     Al1223   1.872       .  S
C1216      O1226   1.269       .  A
C1216      O1217   1.259       .  A
C1216      C1296   1.505       .  S
O1217     Al1219   1.901       .  S
O1218      C1220   1.260       .  A
O1218     Al1219   1.891       .  S
Al1219     O1227   1.851       .  S
Al1219     O1229   1.902       .  S
Al1219     O1228   1.780       .  S
C1220      O1233   1.274       .  A
C1220      C1308   1.499       .  S
O1221      C1231   1.262       .  A
O1221     Al1223   1.876       .  S
O1222      C1235   1.271       .  A
O1222     Al1232   1.945       .  S
Al1223     O1236   1.950       .  S
Al1223     O1233   1.969       .  S
Al1223     O1228   1.769       .  S
O1224      C1231   1.269       .  A
O1224     Al1232   1.923       .  S
O1225      C1234   1.270       .  A
O1225     Al1232   1.949       .  S
O1226     Al1232   1.943       .  S
O1227      C1234   1.253       .  A
O1228     Al1232   1.779       .  S
O1229      C1230   1.256       .  A
C1230      C1320   1.445       .  S
C1231      C1692   1.473       .  S
C1234      C1413   1.465       .  S
C1235      O1236   1.267       .  A
C1235      C1728   1.523       .  S
O1237      C1252   1.277       .  A
O1237     Al1245   1.988       .  S
C1238      O1248   1.263       .  A
C1238      O1239   1.270       .  A
C1238      C1332   1.501       .  S
O1239     Al1241   1.939       .  S
O1240      C1242   1.264       .  A
O1240     Al1241   1.919       .  S
Al1241     O1249   1.935       .  S
Al1241     O1251   1.920       .  S
Al1241     O1250   1.784       .  S
C1242      O1255   1.259       .  A
C1242      C1449   1.476       .  S
O1243      C1253   1.276       .  A
O1243     Al1245   1.974       .  S
O1244      C1257   1.254       .  A
O1244     Al1254   1.894       .  S
Al1245     O1258   1.894       .  S
Al1245     O1255   1.871       .  S
Al1245     O1250   1.771       .  S
O1246      C1253   1.262       .  A
O1246     Al1254   1.884       .  S
O1247      C1256   1.254       .  A
O1247     Al1254   1.854       .  S
O1248     Al1254   1.923       .  S
O1249      C1256   1.268       .  A
O1250     Al1254   1.777       .  S
O1251      C1252   1.267       .  A
C1252      C1353   1.530       .  S
C1253      C1293   1.491       .  S
C1256      C1740   1.460       .  S
C1257      O1258   1.262       .  A
C1257      C1281   1.452       .  S
O1259      C1274   1.267       .  A
O1259     Al1267   1.947       .  S
C1260      O1270   1.266       .  A
C1260      O1261   1.271       .  A
C1260      C1305   1.489       .  S
O1262      C1264   1.270       .  A
Al1263     O1271   1.944       .  S
Al1263     O1273   1.897       .  S
Al1263     O1272   1.783       .  S
C1264      C1377   1.456       .  S
O1265     Al1267   1.947       .  S
O1266      C1279   1.262       .  A
O1266     Al1276   1.894       .  S
Al1267     O1280   1.875       .  S
Al1267     O1277   1.865       .  S
Al1267     O1272   1.785       .  S
O1268     Al1276   1.859       .  S
O1269      C1278   1.248       .  A
O1269     Al1276   1.871       .  S
O1271      C1278   1.263       .  A
O1272     Al1276   1.794       .  S
O1273      C1274   1.256       .  A
C1274      C1404   1.516       .  S
C1275      C1341   1.501       .  S
C1278      C1812   1.463       .  S
C1279      O1280   1.265       .  A
C1279      C1284   1.447       .  S
C1281      C1282   1.398       .  A
C1281      C1286   1.409       .  A
C1282      C1283   1.396       .  A
C1282      H1287   1.085       .  S
C1283      C1284   1.406       .  A
C1283      C1290   1.444       .  S
C1284      C1285   1.399       .  A
C1285      C1286   1.392       .  A
C1285      H1288   1.086       .  S
C1286      C1289   1.444       .  S
C1289      N1291   1.157       .  T
C1290      N1292   1.157       .  T
C1293      C1294   1.410       .  A
C1293      C1298   1.405       .  A
C1294      C1295   1.408       .  A
C1294      H1299   1.085       .  S
C1295      C1296   1.414       .  A
C1295      C1302   1.444       .  S
C1296      C1297   1.417       .  A
C1297      C1298   1.407       .  A
C1297      H1300   1.084       .  S
C1298      C1301   1.443       .  S
C1301      N1303   1.157       .  T
C1302      N1304   1.157       .  T
C1305      C1306   1.403       .  A
C1305      C1310   1.410       .  A
C1306      C1307   1.401       .  A
C1306      H1311   1.082       .  S
C1307      C1308   1.416       .  A
C1307      C1314   1.444       .  S
C1308      C1309   1.414       .  A
C1309      C1310   1.411       .  A
C1309      H1312   1.085       .  S
C1310      C1313   1.444       .  S
C1313      N1315   1.157       .  T
C1314      N1316   1.157       .  T
C1317      C1318   1.399       .  A
C1317      C3178   1.406       .  A
C1318      C3175   1.389       .  A
C1318      H1323   1.086       .  S
C1319      C3174   1.389   1_455  A
C1319      C1320   1.406       .  A
C1319      C1326   1.445       .  S
C1320      C1321   1.397       .  A
C1321      C1322   1.390       .  A
C1321      H1324   1.085       .  S
C1322      C3173   1.406   1_455  A
C1322      C1325   1.443       .  S
C1325      N1327   1.157       .  T
C1326      N1328   1.157       .  T
C1329      C1330   1.411       .  A
C1329      C1334   1.411       .  A
C1330      C1331   1.409       .  A
C1330      H1335   1.084       .  S
C1331      C1332   1.412       .  A
C1331      C1338   1.444       .  S
C1332      C1333   1.413       .  A
C1333      C1334   1.409       .  A
C1333      H1336   1.085       .  S
C1334      C1337   1.443       .  S
C1337      N1339   1.157       .  T
C1338      N1340   1.157       .  T
C1341      C1342   1.419       .  A
C1341      C1346   1.410       .  A
C1342      C1343   1.399       .  A
C1342      H1347   1.084       .  S
C1343      C1344   1.404       .  A
C1343      C1350   1.445       .  S
C1344      C1345   1.411       .  A
C1345      C1346   1.408       .  A
C1345      H1348   1.084       .  S
C1346      C1349   1.442       .  S
C1349      N1351   1.157       .  T
C1350      N1352   1.158       .  T
C1353      C1354   1.413       .  A
C1353      C1358   1.424       .  A
C1354      C1355   1.420       .  A
C1354      H1359   1.084       .  S
C1355      C1356   1.421       .  A
C1355      C1362   1.442       .  S
C1356      C1357   1.411       .  A
C1357      C1358   1.417       .  A
C1357      H1360   1.085       .  S
C1358      C1361   1.444       .  S
C1361      N1363   1.158       .  T
C1362      N1364   1.157       .  T
C1365      C1370   1.405       .  A
C1366      H1371   1.085       .  S
C1367      C1368   1.406       .  A
C1368      C1369   1.402       .  A
C1369      C1370   1.389       .  A
C1369      H1372   1.084       .  S
C1370      C1373   1.444       .  S
C1373      N1375   1.157       .  T
C1374      N1376   1.157       .  T
C1377      C1382   1.407       .  A
C1378      H1383   1.087       .  S
C1379      C1380   1.407       .  A
C1380      C1381   1.409       .  A
C1381      C1382   1.400       .  A
C1381      H1384   1.086       .  S
C1382      C1385   1.444       .  S
C1385      N1387   1.157       .  T
C1386      N1388   1.156       .  T
C1389      C1390   1.407       .  A
C1389      C1394   1.412       .  A
C1390      C1391   1.411       .  A
C1391      C1392   1.417       .  A
C1392      C1393   1.409       .  A
C1393      C1394   1.410       .  A
C1393      H1396   1.085       .  S
C1394      C1397   1.442       .  S
C1397      N3255   1.157       .  T
C1398      N1400   1.157       .  T
N1399      C3253   1.157       .  T
C1401      C1402   1.408       .  A
C1401      C1406   1.422       .  A
C1402      C1403   1.409       .  A
C1402      H1407   1.084       .  S
C1403      C1404   1.423       .  A
C1403      C1410   1.445       .  S
C1404      C1405   1.409       .  A
C1405      C1406   1.416       .  A
C1405      H1408   1.084       .  S
C1406      C1409   1.443       .  S
C1409      N1411   1.157       .  T
C1410      N1412   1.158       .  T
C1413      C1414   1.408       .  A
C1413      C1418   1.407       .  A
C1414      C1415   1.400       .  A
C1414      H1419   1.085       .  S
C1415      C1416   1.409       .  A
C1415      C1422   1.445       .  S
C1416      C1417   1.405       .  A
C1417      C1418   1.395       .  A
C1417      H1420   1.085       .  S
C1418      C1421   1.445       .  S
C1421      N1423   1.157       .  T
C1422      N1424   1.157       .  T
C1425      C1426   1.398       .  A
C1425      C1430   1.401       .  A
C1426      C3283   1.386   1_455  A
C1426      H1431   1.086   1_455  S
C1427      C3282   1.385       .  A
C1427      C1428   1.406       .  A
C1427      C1434   1.445       .  S
C1428      C3285   1.402       .  A
C1429      C3284   1.402   1_455  A
C1429      C1430   1.390       .  A
C1429      H1432   1.085       .  S
C1430      C1433   1.441       .  S
C1433      N1435   1.156       .  T
C1434      N1436   1.157       .  T
C1437      C1438   1.408       .  A
C1437      C1442   1.404       .  A
C1438      C1439   1.405       .  A
C1438      H1443   1.084       .  S
C1439      C1440   1.411       .  A
C1439      C1446   1.444       .  S
C1440      C1441   1.413       .  A
C1441      C1442   1.405       .  A
C1441      H1444   1.085       .  S
C1442      C1445   1.442       .  S
C1445      N1447   1.157       .  T
C1446      N1448   1.157       .  T
C1449      C1450   1.403       .  A
C1449      C1454   1.418       .  A
C1450      C1451   1.393       .  A
C1450      H1455   1.085       .  S
C1451      C1452   1.411       .  A
C1451      C1458   1.446       .  S
C1452      C1453   1.399       .  A
C1453      C1454   1.398       .  A
C1453      H1456   1.085       .  S
C1454      C1457   1.445       .  S
C1457      N1459   1.157       .  T
C1458      N1460   1.157       .  T
C1461      C1462   1.397       .  A
C1461      C1466   1.410       .  A
C1462      C1463   1.385       .  A
C1462      H1467   1.086       .  S
C1463      C1464   1.409       .  A
C1463      C1470   1.444       .  S
C1464      C1465   1.400       .  A
C1465      C1466   1.399       .  A
C1465      H1468   1.086       .  S
C1466      C1469   1.442       .  S
C1469      N1471   1.157       .  T
C1470      N1472   1.157       .  T
C1473      C1474   1.406       .  A
C1473      C1478   1.408       .  A
C1474      C1475   1.407       .  A
C1474      H1479   1.085       .  S
C1475      C1476   1.418       .  A
C1475      C1482   1.444       .  S
C1476      C2988   1.499       .  S
C1476      C1477   1.411       .  A
C1477      C1478   1.404       .  A
C1477      H1480   1.084       .  S
C1478      C1481   1.444       .  S
C1481      N1483   1.157       .  T
C1482      N3340   1.157       .  T
N1484      C3338   1.157       .  T
C1485      C1486   1.398       .  A
C1485      C1490   1.424       .  A
C1486      C1487   1.403       .  A
C1486      H1491   1.086       .  S
C1487      C1488   1.425       .  A
C1487      C1494   1.445       .  S
C1488      C1489   1.398       .  A
C1489      C1490   1.402       .  A
C1489      H1492   1.086       .  S
C1490      C1493   1.445       .  S
C1493      N1495   1.157       .  T
C1494      N1496   1.157       .  T
C1497      C1498   1.400       .  A
C1497      C1502   1.409       .  A
C1498      C1499   1.398       .  A
C1498      H1503   1.088       .  S
C1499      C1500   1.422       .  A
C1499      C1506   1.445       .  S
C1500      C1501   1.406       .  A
C1501      C1502   1.403       .  A
C1501      H1504   1.086       .  S
C1502      C1505   1.441       .  S
C1505      N1507   1.156       .  T
C1506      N1508   1.158       .  T
C1509      C1510   1.406       .  A
C1509      C1514   1.415       .  A
C1510      C1511   1.398       .  A
C1510      H1515   1.084       .  S
C1511      C1512   1.408       .  A
C1511      C1518   1.444       .  S
C1512      C1513   1.401       .  A
C1513      C1514   1.392       .  A
C1513      H1516   1.085       .  S
C1514      C1517   1.444       .  S
C1517      N1519   1.157       .  T
C1518      N1520   1.157       .  T
C1521      C1522   1.400       .  A
C1521      C3382   1.407       .  A
C1522      C3379   1.390       .  A
C1522      H1527   1.086       .  S
C1523      C3378   1.390       .  A
C1523      C1524   1.408   1_655  A
C1523      C3386   1.444       .  S
C1524      C1525   1.399       .  A
C1525      C1526   1.399       .  A
C1525      H1528   1.085       .  S
C1526      C3377   1.407   1_455  A
C1526      C1529   1.442       .  S
C1529      N1531   1.157       .  T
C1530      C3379   1.444       .  S
C1530      N1532   1.157       .  T
C1533      C1534   1.412       .  A
C1533      C1538   1.420   1_556  A
C1534      C1535   1.413       .  A
C1534      H1539   1.084       .  S
C1535      C1536   1.420       .  A
C1535      C1542   1.443       .  S
C1536      C1537   1.412       .  A
C1537      C1538   1.413   1_556  A
C1537      H1540   1.084       .  S
C1538      C1541   1.444       .  S
C1541      N1543   1.157       .  T
C1542      N1544   1.157       .  T
C1545      C1546   1.409   1_556  A
C1545      C1550   1.424   1_556  A
C1546      C1547   1.401       .  A
C1546      H1551   1.083       .  S
C1547      C1548   1.404       .  A
C1547      C1554   1.444       .  S
C1548      C1549   1.393       .  A
C1549      C1550   1.392       .  A
C1549      H1552   1.085       .  S
C1550      C1553   1.445   1_554  S
C1553      N1555   1.157       .  T
C1554      N1556   1.157       .  T
C1557      C1558   1.404       .  A
C1557      C1562   1.404       .  A
C1558      C1559   1.397       .  A
C1558      H1563   1.084       .  S
C1559      C1560   1.413       .  A
C1559      C1566   1.445       .  S
C1560      C1561   1.414       .  A
C1561      C1562   1.404       .  A
C1561      H1564   1.085       .  S
C1562      C1565   1.443       .  S
C1565      N1567   1.157       .  T
C1566      N1568   1.157       .  T
C1569      C1570   1.411       .  A
C1569      C1574   1.409       .  A
C1570      C1571   1.405       .  A
C1570      H1575   1.085       .  S
C1571      C1572   1.409       .  A
C1571      C1578   1.443       .  S
C1572      C1573   1.412       .  A
C1573      C1574   1.405       .  A
C1573      H1576   1.084       .  S
C1574      C1577   1.444       .  S
C1577      N1579   1.157       .  T
C1578      N1580   1.157       .  T
C1581      C1586   1.425       .  A
C1582      H1587   1.084       .  S
C1583      C1584   1.424       .  A
C1584      C1585   1.414   1_554  A
C1585      C1586   1.421       .  A
C1585      H1588   1.084       .  S
C1586      C1589   1.443       .  S
C1589      N1591   1.158       .  T
C1590      N1592   1.157       .  T
C1593      C1594   1.409   1_556  A
C1593      C1598   1.414   1_556  A
C1594      C1595   1.398       .  A
C1594      H1599   1.085   1_565  S
C1595      C1596   1.404       .  A
C1595      C1602   1.444   1_565  S
C1596      C1597   1.403       .  A
C1597      C1598   1.395       .  A
C1597      H1600   1.086       .  S
C1598      C1601   1.444       .  S
C1601      N1603   1.157   1_554  T
C1602      N1604   1.157       .  T
C1605      C1606   1.396       .  A
C1605      C1610   1.406       .  A
C1606      C1607   1.383       .  A
C1606      H1611   1.086       .  S
C1607      C1608   1.406       .  A
C1607      C1614   1.443       .  S
C1608      C1609   1.399       .  A
C1609      C1610   1.394       .  A
C1609      H1612   1.082       .  S
C1610      C1613   1.444       .  S
C1613      N1615   1.157       .  T
C1614      N1616   1.157       .  T
C1617      C1618   1.415   1_565  A
C1618      C1619   1.404       .  A
C1618      H1623   1.085   1_545  S
C1619      C3482   1.444       .  S
C1620      C2933   1.494       .  S
C1620      C1621   1.412       .  A
C1621      C1622   1.406       .  A
C1621      H1624   1.085       .  S
C1622      C1625   1.444       .  S
C1625      N1627   1.157       .  T
C1626      C3475   1.444       .  S
C1626      N1628   1.157       .  T
C1629      C1630   1.404       .  A
C1629      C1634   1.407       .  A
C1630      C1631   1.405       .  A
C1630      H1635   1.087       .  S
C1631      C1632   1.417       .  A
C1631      C1638   1.444       .  S
C1632      C1633   1.415       .  A
C1633      C1634   1.411       .  A
C1633      H1636   1.086       .  S
C1634      C1637   1.442       .  S
C1637      N1639   1.157       .  T
C1638      N1640   1.157       .  T
C1641      C1642   1.414       .  A
C1641      C1646   1.422       .  A
C1642      C1643   1.421       .  A
C1642      H1647   1.084       .  S
C1643      C1644   1.421       .  A
C1643      C1650   1.443       .  S
C1644      C1645   1.411       .  A
C1645      C1646   1.414       .  A
C1645      H1648   1.084       .  S
C1646      C1649   1.444       .  S
C1649      N1651   1.157       .  T
C1650      N1652   1.157       .  T
C1653      C1654   1.397       .  A
C1653      C1658   1.412       .  A
C1654      C1655   1.397       .  A
C1654      H1659   1.085       .  S
C1655      C1656   1.421       .  A
C1655      C1662   1.445       .  S
C1656      C1657   1.401       .  A
C1657      C1658   1.395       .  A
C1657      H1660   1.085       .  S
C1658      C1661   1.442       .  S
C1661      N1663   1.156       .  T
C1662      N1664   1.157       .  T
C1665      C1670   1.419       .  A
C1666      C1667   1.397       .  A
C1666      H1671   1.085       .  S
C1667      C1674   1.444       .  S
C1668      C1669   1.397       .  A
C1669      C1670   1.395       .  A
C1669      H1672   1.086       .  S
C1670      C1673   1.444       .  S
C1673      N1675   1.157       .  T
C1674      N1676   1.157   1_545  T
C1677      C1678   1.413       .  A
C1677      C1682   1.423       .  A
C1678      C1679   1.419       .  A
C1678      H1683   1.084       .  S
C1679      C1680   1.421       .  A
C1679      C1686   1.442       .  S
C1680      C1681   1.413       .  A
C1681      C1682   1.418       .  A
C1681      H1684   1.085       .  S
C1682      C1685   1.444       .  S
C1685      N1687   1.158       .  T
C1686      N1688   1.157       .  T
C1689      C1690   1.406       .  A
C1689      C1694   1.406       .  A
C1690      C1691   1.395       .  A
C1690      H1695   1.084       .  S
C1691      C1692   1.410       .  A
C1691      C1698   1.445       .  S
C1692      C1693   1.408       .  A
C1693      C1694   1.398       .  A
C1693      H1696   1.084       .  S
C1694      C1697   1.444       .  S
C1697      N1699   1.157       .  T
C1698      N1700   1.157       .  T
C1701      C1702   1.405       .  A
C1701      C1706   1.410       .  A
C1702      C1703   1.393       .  A
C1702      H1707   1.085       .  S
C1703      C1704   1.406       .  A
C1703      C1710   1.444       .  S
C1704      C1705   1.403       .  A
C1705      C1706   1.396       .  A
C1705      H1708   1.085       .  S
C1706      C1709   1.441       .  S
C1709      N1711   1.156       .  T
C1710      N1712   1.157       .  T
C1713      C1714   1.402       .  A
C1713      C1718   1.405       .  A
C1714      C1715   1.389       .  A
C1714      H1719   1.086       .  S
C1715      C1716   1.400       .  A
C1715      C1722   1.443       .  S
C1716      C1717   1.396       .  A
C1717      C1718   1.379       .  A
C1717      H1720   1.085       .  S
C1718      C1721   1.447       .  S
C1721      N1723   1.157       .  T
C1722      N1724   1.157       .  T
C1725      C3582   1.409       .  A
C1725      C1730   1.425       .  A
C1726      C3581   1.412       .  A
C1726      C1727   1.419   1_655  A
C1726      H1731   1.083       .  S
C1727      C1728   1.423       .  A
C1727      C1734   1.444       .  S
C1728      C1729   1.409       .  A
C1729      C3586   1.417       .  A
C1729      H1732   1.083       .  S
C1730      C3585   1.417       .  A
C1730      C1733   1.444       .  S
C1733      N1735   1.157       .  T
C1734      N1736   1.158       .  T
C1737      C1738   1.403       .  A
C1737      C1742   1.410       .  A
C1738      C1739   1.393       .  A
C1738      H1743   1.085       .  S
C1739      C1740   1.408       .  A
C1739      C1746   1.445       .  S
C1740      C1741   1.405       .  A
C1741      C1742   1.394       .  A
C1741      H1744   1.085       .  S
C1742      C1745   1.446       .  S
C1745      N1747   1.157       .  T
C1746      N1748   1.157       .  T
C1749      C1750   1.403       .  A
C1749      C1754   1.408       .  A
C1750      C1751   1.398       .  A
C1750      H1755   1.086       .  S
C1751      C1752   1.413       .  A
C1751      C1758   1.444       .  S
C1752      C1753   1.401       .  A
C1753      C1754   1.397       .  A
C1753      H1756   1.086       .  S
C1754      C1757   1.442       .  S
C1757      N1759   1.157       .  T
C1758      N1760   1.157       .  T
C1761      C1762   1.412       .  A
C1761      C1766   1.416       .  A
C1762      C1763   1.405       .  A
C1762      H1767   1.085       .  S
C1763      C1764   1.406       .  A
C1763      C1770   1.441       .  S
C1764      C1765   1.408       .  A
C1765      C1766   1.409       .  A
C1765      H1768   1.083       .  S
C1766      C1769   1.444       .  S
C1769      N1771   1.158       .  T
C1770      N1772   1.157       .  T
C1773      C1774   1.412       .  A
C1773      C1778   1.415       .  A
C1774      C1775   1.406       .  A
C1774      H1779   1.085       .  S
C1775      C1776   1.409       .  A
C1775      C1782   1.444       .  S
C1776      C1777   1.406       .  A
C1777      C1778   1.404       .  A
C1777      H1780   1.085       .  S
C1778      C1781   1.444       .  S
C1781      N1783   1.157       .  T
C1782      N1784   1.157       .  T
C1785      C1786   1.408       .  A
C1786      C1787   1.412       .  A
C1786      H1791   1.084       .  S
C1787      C3644   1.424   1_455  A
C1787      C1794   1.444       .  S
C1788      C3643   1.421       .  A
C1788      C1789   1.409       .  A
C1789      C2718   1.413       .  A
C1790      C2717   1.415       .  A
C1790      C1793   1.444       .  S
C1793      N1795   1.157       .  T
C1794      N1796   1.157   1_455  T
C1797      C1798   1.405       .  A
C1798      C1799   1.400       .  A
C1798      H1803   1.085       .  S
C1799      C1800   1.409       .  A
C1799      C1806   1.444       .  S
C1801      C1802   1.397       .  A
C1801      H1804   1.086       .  S
C1802      C1805   1.444       .  S
C1805      N1807   1.157       .  T
C1806      N1808   1.157       .  T
C1809      C1810   1.406       .  A
C1809      C1814   1.410       .  A
C1810      C1811   1.399       .  A
C1811      C1812   1.407       .  A
C1812      C1813   1.407       .  A
C1813      C1814   1.403       .  A
C1813      H1816   1.085       .  S
C1814      C1817   1.444       .  S
C1817      N1819   1.157       .  T
C1818      N1820   1.157       .  T
C1821      C1822   1.395       .  A
C1821      C1826   1.408       .  A
C1822      C3679   1.391   1_455  A
C1822      H1827   1.084       .  S
C1823      C3678   1.391       .  A
C1823      C1824   1.408       .  A
C1823      C1830   1.441       .  S
C1824      C3681   1.396       .  A
C1825      C3680   1.397   1_455  A
C1825      C1826   1.392       .  A
C1825      H1828   1.086       .  S
C1826      C1829   1.441       .  S
C1829      N1831   1.156       .  T
C1830      N1832   1.156       .  T
C1833      C1834   1.404   1_565  A
C1833      C1838   1.428   1_565  A
C1834      H1839   1.085       .  S
C1835      C1836   1.422       .  A
C1835      C1842   1.444       .  S
C1836      C1837   1.402       .  A
C1837      H1840   1.086       .  S
C1838      C1841   1.444   1_545  S
C1841      N1843   1.157       .  T
C1842      N1844   1.157       .  T
C1845      C1846   1.412       .  A
C1845      C1850   1.409       .  A
C1846      C1847   1.404       .  A
C1846      H1851   1.084       .  S
C1847      C1848   1.407       .  A
C1847      C1854   1.443       .  S
C1848      C1849   1.410       .  A
C1849      C1850   1.401       .  A
C1849      H1852   1.084       .  S
C1850      C1853   1.444       .  S
C1853      N1855   1.157       .  T
C1854      N1856   1.157       .  T
O1857      C1872   1.268       .  A
O1857     Al1865   1.944       .  S
C1858      O1868   1.259       .  A
C1858      O1859   1.271       .  A
C1858      C2761   1.510       .  S
O1859     Al1861   1.950       .  S
O1860      C1862   1.269       .  A
O1860     Al1861   1.930       .  S
Al1861     O2797   1.953       .  S
Al1861     O2799   1.936       .  S
Al1861     O1870   1.780       .  S
C1862      O1875   1.260       .  A
C1862      C2737   1.474       .  S
O1863      C1873   1.273       .  A
O1863     Al1865   1.956       .  S
O1864      C1877   1.256       .  A
O1864     Al1874   1.912       .  S
Al1865     O1878   1.886       .  S
Al1865     O1875   1.877       .  S
Al1865     O1870   1.769       .  S
O1866      C1873   1.260       .  A
O1866     Al1874   1.878       .  S
O1867      C1876   1.255       .  A
O1867     Al1874   1.857       .  S
O1868     Al1874   1.911       .  S
O1869      C2804   1.270       .  A
O1869     Al2789   1.949   1_545  S
O1870     Al1874   1.775       .  S
O1871      C2800   1.270   1_545  A
O1871     Al2789   1.934   1_545  S
C1872      O2799   1.271       .  A
C1872      C3641   1.518       .  S
C1873      C2773   1.487       .  S
C1876      O2797   1.271       .  A
C1876      C3656   1.462       .  S
C1877      O1878   1.260       .  A
C1877      C2749   1.453       .  S
O1879      C1894   1.265       .  A
O1879     Al1887   1.937       .  S
C1880      O1890   1.260       .  A
C1880      O1881   1.267       .  A
C1880      C2689   1.495       .  S
O1881     Al1883   1.926       .  S
O1882      C1884   1.270       .  A
O1882     Al1883   1.926       .  S
Al1883     O1891   1.946       .  S
Al1883     O1893   1.937       .  S
Al1883     O1892   1.784       .  S
C1884      O1897   1.260       .  A
C1884      C2665   1.469       .  S
O1885      C1895   1.270       .  A
O1885     Al1887   1.954       .  S
O1886      C1899   1.259       .  A
O1886     Al1896   1.916       .  S
Al1887     O1900   1.882       .  S
Al1887     O1897   1.872       .  S
Al1887     O1892   1.768       .  S
O1888      C1895   1.260       .  A
O1888     Al1896   1.886       .  S
O1889      C1898   1.254       .  A
O1889     Al1896   1.846       .  S
O1890     Al1896   1.905       .  S
O1891      C1898   1.268       .  A
O1892     Al1896   1.774       .  S
O1893      C1894   1.269       .  A
C1894      C2653   1.518       .  S
C1895      C2701   1.493       .  S
C1898      C2677   1.460       .  S
C1899      O1900   1.260       .  A
C1899      C2752   1.453       .  S
O1901      C1916   1.258       .  A
O1901     Al1909   1.884       .  S
C1902      O1912   1.267       .  A
C1902      O1903   1.254       .  A
C1902      C2776   1.481       .  S
O1903     Al1905   1.886       .  S
O1904      C1906   1.260       .  A
O1904     Al1905   1.891       .  S
Al1905     O1913   1.844       .  S
Al1905     O1915   1.881       .  S
Al1905     O1914   1.776       .  S
C1906      O1919   1.276       .  A
C1906      C2692   1.483       .  S
O1907      C1917   1.260       .  A
O1907     Al1909   1.876       .  S
O1908      C1921   1.268       .  A
O1908     Al1918   1.936       .  S
Al1909     O1922   1.962       .  S
Al1909     O1919   1.980       .  S
Al1909     O1914   1.770       .  S
O1910      C1917   1.269       .  A
O1910     Al1918   1.914       .  S
O1911      C1920   1.271       .  A
O1911     Al1918   1.947       .  S
O1912     Al1918   1.937       .  S
O1913      C1920   1.255       .  A
O1914     Al1918   1.775       .  S
O1915      C1916   1.252       .  A
C1916      C2644   1.433       .  S
C1917      C2629   1.471       .  S
C1920      C2617   1.461       .  S
C1921      O1922   1.271       .  A
C1921      C2608   1.528       .  S
O1923      C1938   1.255       .  A
O1923     Al1931   1.849       .  S
C1924      O2862   1.266       .  A
C1924      O2853   1.260       .  A
C1924      C2704   1.481       .  S
O1925      C2852   1.261   1_545  A
O1925     Al1927   1.910       .  S
O1926      C1928   1.262       .  A
O1926     Al1927   1.894       .  S
Al1927     O1935   1.856       .  S
Al1927     O1937   1.888       .  S
Al1927     O1936   1.780       .  S
C1928      O1941   1.275       .  A
C1928      C2764   1.502       .  S
O1929      C1939   1.263       .  A
O1929     Al1931   1.880       .  S
O1930      C1943   1.271       .  A
O1930     Al1940   1.942       .  S
Al1931     O1944   1.957       .  S
Al1931     O1941   1.978       .  S
Al1931     O1936   1.764       .  S
O1932      C1939   1.268       .  A
O1932     Al1940   1.926       .  S
O1933      C1942   1.269       .  A
O1933     Al1940   1.954       .  S
O1934      C2852   1.268   1_545  A
O1934     Al1940   1.926       .  S
O1935      C1942   1.250       .  A
O1936     Al1940   1.782       .  S
O1937      C1938   1.254       .  A
C1938      C2641   1.438       .  S
C1939      C2593   1.483       .  S
C1942      C2581   1.462       .  S
C1943      O1944   1.271       .  A
C1943      C2569   1.520       .  S
O1945      C1960   1.257       .  A
O1945     Al1953   1.881       .  S
C1946      O1956   1.272       .  A
C1946      O1947   1.261       .  A
C1946      C2545   1.500       .  S
O1947     Al1949   1.911       .  S
O1948      C1950   1.259       .  A
O1948     Al1949   1.885       .  S
Al1949     O1957   1.856       .  S
Al1949     O1959   1.897       .  S
Al1949     O1958   1.771       .  S
C1950      O1963   1.280       .  A
C1950      C2557   1.489       .  S
O1951      C1961   1.258       .  A
O1951     Al1953   1.869       .  S
O1952      C2893   1.271   1_545  A
O1952     Al2890   1.932   1_545  S
Al1953     O1966   1.981       .  S
Al1953     O1963   1.992       .  S
Al1953     O1958   1.765       .  S
O1954      C1961   1.269       .  A
O1954     Al1962   1.928       .  S
O1955      C2892   1.272       .  A
O1955     Al2890   1.958   1_545  S
O1956     Al1962   1.945       .  S
O1957      C1964   1.253       .  A
O1958     Al1962   1.780       .  S
O1959      C1960   1.254       .  A
C1960      C2536   1.442       .  S
C1961      C2521   1.474   1_556  S
Al1962     O2880   1.934       .  S
Al1962     O2883   1.951       .  S
C1964      O2883   1.271       .  A
C1964      C3524   1.457       .  S
C1965      O2880   1.270       .  A
C1965      O1966   1.276       .  A
C1965      C3437   1.532       .  S
O1967      C1982   1.259       .  A
O1967     Al1975   1.862       .  S
C1968      O1978   1.266       .  A
C1968      O1969   1.259       .  A
C1968      C2488   1.490       .  S
O1969     Al1971   1.901       .  S
O1970      C1972   1.260       .  A
O1970     Al1971   1.879       .  S
Al1971     O1979   1.847       .  S
Al1971     O1981   1.904       .  S
Al1971     O1980   1.782       .  S
C1972      O1985   1.274       .  A
C1972      C2500   1.491       .  S
O1973      C1983   1.263       .  A
O1973     Al1975   1.881       .  S
O1974      C1987   1.266       .  A
O1974     Al1984   1.925       .  S
Al1975     O1988   1.954       .  S
Al1975     O1985   1.970       .  S
Al1975     O1980   1.768       .  S
O1976      C1983   1.269       .  A
O1976     Al1984   1.927       .  S
O1977      C1986   1.268       .  A
O1977     Al1984   1.944       .  S
O1978     Al1984   1.917       .  S
O1979      C1986   1.252       .  A
O1980     Al1984   1.780       .  S
O1981      C1982   1.255       .  A
C1982      C2533   1.447       .  S
C1983      C2473   1.483       .  S
C1986      C2632   1.458       .  S
C1987      O1988   1.270       .  A
C1987      C2464   1.519       .  S
O1989      C2004   1.275       .  A
O1989     Al1997   1.975       .  S
C1990      O2928   1.262       .  A
C1990      O2919   1.269       .  A
C1990      C2497   1.498       .  S
O1991      C2918   1.266   1_545  A
O1991     Al1993   1.934       .  S
O1992      C1994   1.267       .  A
O1992     Al1993   1.920       .  S
Al1993     O2001   1.956       .  S
Al1993     O2003   1.921       .  S
Al1993     O2002   1.778       .  S
C1994      O2007   1.260       .  A
C1994      C2725   1.481       .  S
O1995      C2005   1.275       .  A
O1995     Al1997   1.972       .  S
O1996      C2009   1.255       .  A
O1996     Al2006   1.896       .  S
Al1997     O2010   1.898       .  S
Al1997     O2007   1.876       .  S
Al1997     O2002   1.775       .  S
O1998      C2005   1.259       .  A
O1998     Al2006   1.876       .  S
O1999      C2008   1.255       .  A
O1999     Al2006   1.849       .  S
O2000      C2918   1.258   1_545  A
O2000     Al2006   1.906       .  S
O2001      C2008   1.273       .  A
O2002     Al2006   1.773       .  S
O2003      C2004   1.268       .  A
C2004      C2605   1.528       .  S
C2008      C2440   1.471       .  S
C2009      O2010   1.262       .  A
C2009      C2452   1.453       .  S
O2011      C2026   1.270       .  A
O2011     Al2019   1.947       .  S
C2012      O2022   1.267       .  A
C2012      O2013   1.276       .  A
C2012      C2560   1.502       .  S
O2013     Al2015   1.961       .  S
O2014      C2016   1.268       .  A
O2014     Al2015   1.914       .  S
Al2015     O2023   1.939       .  S
Al2015     O2025   1.924       .  S
Al2015     O2024   1.787       .  S
C2016      O2029   1.251       .  A
C2016      C2680   1.460       .  S
O2017     Al2019   1.941       .  S
O2018      C2031   1.261       .  A
O2018     Al2028   1.900       .  S
Al2019     O2032   1.880       .  S
Al2019     O2029   1.848       .  S
Al2019     O2024   1.785       .  S
O2020     Al2028   1.873       .  S
O2021      C2030   1.247       .  A
O2021     Al2028   1.849       .  S
O2022     Al2028   1.901       .  S
O2023      C2030   1.262       .  A
O2024     Al2028   1.796       .  S
O2025      C2026   1.264       .  A
C2026      C2572   1.523       .  S
C2027      C2485   1.478       .  S
C2030      C2425   1.462       .  S
C2031      O2032   1.263       .  A
C2031      C2449   1.450       .  S
O2033      C2048   1.273       .  A
O2033     Al2041   1.964       .  S
C2034      O2044   1.262       .  A
C2034      O2035   1.269       .  A
C2034      C2401   1.493       .  S
O2035     Al2037   1.933       .  S
O2036      C2038   1.267   1_554  A
O2036     Al2037   1.922       .  S
Al2037     O2045   1.954       .  S
Al2037     O2047   1.924       .  S
Al2037     O2046   1.777       .  S
C2038      O2051   1.263   1_556  A
C2038      C2428   1.490       .  S
O2039      C2049   1.278       .  A
O2039     Al2041   1.979       .  S
O2040      C2053   1.254       .  A
O2040     Al2050   1.904       .  S
Al2041     O2054   1.875       .  S
Al2041     O2051   1.891       .  S
Al2041     O2046   1.770       .  S
O2042      C2049   1.260       .  A
O2042     Al2050   1.881       .  S
O2043      C2052   1.253       .  A
O2043     Al2050   1.861       .  S
O2044     Al2050   1.919       .  S
O2045      C2052   1.270       .  A
O2046     Al2050   1.777       .  S
O2047      C2048   1.269       .  A
C2048      C2461   1.520   1_554  S
C2049      C2416   1.496       .  S
C2052      C2380   1.462       .  S
C2053      O2054   1.257       .  A
C2053      C2389   1.448       .  S
O2055      C2070   1.260       .  A
O2055     Al2063   1.891       .  S
C2056      O2066   1.268       .  A
C2056      O2057   1.258       .  A
C2056      C2368   1.486       .  S
O2057     Al2059   1.905       .  S
O2058      C2060   1.266       .  A
O2058     Al2059   1.896       .  S
Al2059     O2067   1.862       .  S
Al2059     O2069   1.877       .  S
Al2059     O2068   1.779       .  S
C2060      O2073   1.275       .  A
O2061      C2071   1.258       .  A
O2061     Al2063   1.879       .  S
O2062      C2075   1.267       .  A
O2062     Al2072   1.923       .  S
Al2063     O2076   1.966       .  S
Al2063     O2073   1.962       .  S
Al2063     O2068   1.767       .  S
O2064      C2071   1.266       .  A
O2064     Al2072   1.920       .  S
O2065      C2074   1.270       .  A
O2065     Al2072   1.951       .  S
O2066     Al2072   1.931       .  S
O2067      C2074   1.256       .  A
O2068     Al2072   1.779       .  S
O2069      C2070   1.249       .  A
C2070      C2353   1.438       .  S
C2071      C2344   1.471       .  S
C2074      C2476   1.460       .  S
C2075      O2076   1.273       .  A
C2075      C2329   1.523       .  S
O2077      C2092   1.271       .  A
O2077     Al2085   1.971       .  S
C2078      O2088   1.260       .  A
C2078      O2079   1.266       .  A
C2078      C2320   1.494       .  S
O2079     Al2081   1.927       .  S
O2080      C2082   1.273   1_554  A
O2080     Al2081   1.938       .  S
Al2081     O2089   1.958       .  S
Al2081     O2091   1.936       .  S
Al2081     O2090   1.780       .  S
C2082      O2095   1.261   1_556  A
C2082      C2437   1.467       .  S
O2083      C2093   1.273       .  A
O2083     Al2085   1.972       .  S
O2084      C2097   1.260       .  A
O2084     Al2094   1.918       .  S
Al2085     O2098   1.876       .  S
Al2085     O2095   1.870       .  S
Al2085     O2090   1.773       .  S
O2086      C2093   1.257       .  A
O2086     Al2094   1.880       .  S
O2087      C2096   1.252       .  A
O2087     Al2094   1.843       .  S
O2088     Al2094   1.908       .  S
O2089      C2096   1.271       .  A
O2090     Al2094   1.777       .  S
O2091      C2092   1.268       .  A
C2092      C2512   1.532       .  S
C2093      C2365   1.495       .  S
C2096      C2308   1.469       .  S
C2097      O2098   1.261       .  A
C2097      C2392   1.450       .  S
O2099      C2114   1.258       .  A
O2099     Al2107   1.860       .  S
C2100      O2110   1.269       .  A
C2100      O2101   1.255       .  A
C2100      C2413   1.498       .  S
O2101     Al3031   1.891   1_545  S
O2102     Al3031   1.888   1_545  S
Al2103     O3029   1.878       .  S
Al2103     O3030   1.904       .  S
Al2103     O2111   1.839       .  S
Al2103     O2113   1.896       .  S
Al2103     O2112   1.776       .  S
C2104      O3045   1.276   1_545  A
C2104      C2317   1.488       .  S
O2105      C3043   1.262       .  A
O2105     Al2107   1.868       .  S
O2106      C2119   1.267       .  A
O2106     Al2116   1.940       .  S
Al2107     O2120   1.957       .  S
Al2107     O2112   1.769       .  S
O2108      C2115   1.270       .  A
O2108     Al3044   1.917       .  S
O2109      C2118   1.266       .  A
O2109     Al2116   1.935       .  S
O2110     Al3044   1.942   1_545  S
O2111      C2118   1.254       .  A
O2112     Al2116   1.785       .  S
O2113      C2114   1.258       .  A
C2114      C2356   1.449       .  S
C2115      O3033   1.261       .  A
C2115      C2293   1.463   1_565  S
Al2116     O3036   1.919       .  S
Al2116     O3038   1.937       .  S
O2117      C3032   1.273       .  A
C2118      C2524   1.458       .  S
C2119      O2120   1.269       .  A
C2119      C2284   1.527       .  S
O2121      C2136   1.259       .  A
O2121     Al2129   1.872       .  S
C2122      O2132   1.264       .  A
C2122      O2123   1.258       .  A
C2122      C2272   1.483       .  S
O2123     Al2125   1.899       .  S
O2124      C2126   1.263       .  A
O2124     Al2125   1.898       .  S
Al2125     O2133   1.842       .  S
Al2125     O2135   1.893       .  S
Al2125     O2134   1.785       .  S
C2126      O2139   1.272       .  A
C2126      C2257   1.498       .  S
O2127      C2137   1.265       .  A
O2127     Al2129   1.880       .  S
O2128      C2141   1.266       .  A
O2128     Al2138   1.933       .  S
Al2129     O2142   1.947       .  S
Al2129     O2139   1.969       .  S
Al2129     O2134   1.773       .  S
O2130      C2137   1.268       .  A
O2130     Al2138   1.918       .  S
O2131      C2140   1.266       .  A
O2131     Al2138   1.938       .  S
O2132     Al2138   1.916       .  S
O2133      C2140   1.253       .  A
O2134     Al2138   1.785       .  S
O2135      C2136   1.256       .  A
C2136      C2245   1.437       .  S
C2137      C2584   1.479       .  S
C2140      C2296   1.462       .  S
C2141      O2142   1.265       .  A
C2141      C2716   1.522       .  S
O2143      C2158   1.260       .  A
O2143     Al2151   1.881       .  S
C2144      O2154   1.267       .  A
C2144      O2145   1.254       .  A
C2144      C2224   1.494       .  S
O2145     Al2147   1.881       .  S
O2146      C2148   1.260       .  A
O2146     Al2147   1.890       .  S
Al2147     O2155   1.848       .  S
Al2147     O2157   1.886       .  S
Al2147     O2156   1.776       .  S
C2148      O2161   1.273       .  A
C2148      C2236   1.493       .  S
O2149      C2159   1.263       .  A
O2149     Al2151   1.873       .  S
O2150      C2163   1.270       .  A
O2150     Al2160   1.938       .  S
Al2151     O2164   1.932       .  S
Al2151     O2161   1.962       .  S
Al2151     O2156   1.768       .  S
O2152      C2159   1.269       .  A
O2152     Al2160   1.917       .  S
O2153      C2162   1.271       .  A
O2153     Al2160   1.950       .  S
O2154     Al2160   1.938       .  S
O2155      C2162   1.253       .  A
O2156     Al2160   1.777       .  S
O2157      C2158   1.254       .  A
C2158      C2248   1.440       .  S
C2159      C2620   1.469       .  S
C2162      C2341   1.465       .  S
C2163      O2164   1.263       .  A
C2163      C2656   1.513       .  S
O2165      C2180   1.275       .  A
O2165     Al2173   1.977       .  S
C2166      O2176   1.263       .  A
C2166      O2167   1.269       .  A
C2166      C2260   1.507       .  S
O2167     Al2169   1.938       .  S
O2168      C2170   1.265       .  A
O2168     Al2169   1.916       .  S
Al2169     O2177   1.945       .  S
Al2169     O2179   1.925       .  S
Al2169     O2178   1.781       .  S
C2170      O2183   1.262       .  A
C2170      C2377   1.482       .  S
O2171      C2181   1.275       .  A
O2171     Al2173   1.968       .  S
O2172      C2185   1.257       .  A
O2172     Al2182   1.909       .  S
Al2173     O2186   1.898       .  S
Al2173     O2183   1.884       .  S
Al2173     O2178   1.777       .  S
O2174      C2181   1.259       .  A
O2174     Al2182   1.875       .  S
O2175      C2184   1.254       .  A
O2175     Al2182   1.855       .  S
O2176     Al2182   1.927       .  S
O2177      C2184   1.269       .  A
O2178     Al2182   1.778       .  S
O2179      C2180   1.269       .  A
C2180      C2281   1.529       .  S
C2181      C2221   1.483       .  S
C2184      C2668   1.464       .  S
C2185      O2186   1.262       .  A
C2185      C2209   1.461       .  S
O2187      C2202   1.269       .  A
O2187     Al2195   1.962       .  S
C2188      O2198   1.265       .  A
C2188      O2189   1.274       .  A
C2188      C2233   1.485       .  S
O2189     Al3119   1.950   1_545  S
O2190      C2192   1.269   1_545  A
O2190     Al3119   1.910   1_545  S
Al2191     O3117   1.946       .  S
Al2191     O3118   1.906       .  S
Al2191     O2199   1.941       .  S
Al2191     O2201   1.898       .  S
Al2191     O2200   1.785       .  S
C2192      O3133   1.257       .  A
C2192      C2305   1.460   1_565  S
O2193      C3131   1.265       .  A
O2193     Al2195   1.957       .  S
O2194      C2207   1.267       .  A
O2194     Al2204   1.911       .  S
Al2195     O2208   1.873       .  S
Al2195     O2205   1.863       .  S
Al2195     O2200   1.789       .  S
O2196      C3131   1.243       .  A
O2196     Al2204   1.843       .  S
O2197      C2206   1.246       .  A
O2197     Al2204   1.862       .  S
O2198     Al3132   1.900   1_545  S
O2199      C2206   1.261       .  A
O2200     Al2204   1.797       .  S
O2201      C2202   1.255       .  A
C2202      C2332   1.525       .  S
C2203      O3121   1.264       .  A
C2203      O3124   1.247       .  A
C2203      C2269   1.499   1_565  S
Al2204     O3126   1.917       .  S
O2205      C3120   1.256       .  A
C2206      C2740   1.459       .  S
C2207      O2208   1.264       .  A
C2207      C2212   1.455       .  S
C2209      C2210   1.399       .  A
C2209      C2214   1.410       .  A
C2210      C2211   1.399       .  A
C2210      H2215   1.085       .  S
C2211      C2212   1.408       .  A
C2211      C2218   1.443       .  S
C2212      C2213   1.400       .  A
C2213      C2214   1.395       .  A
C2213      H2216   1.086       .  S
C2214      C2217   1.443       .  S
C2217      N2219   1.157       .  T
C2218      N2220   1.157       .  T
C2221      C2222   1.410       .  A
C2221      C2226   1.403       .  A
C2222      C2223   1.405       .  A
C2222      H2227   1.085       .  S
C2223      C2224   1.411       .  A
C2223      C2230   1.444       .  S
C2224      C2225   1.416       .  A
C2225      C2226   1.402       .  A
C2225      H2228   1.085       .  S
C2226      C2229   1.443       .  S
C2229      N2231   1.157       .  T
C2230      N2232   1.158       .  T
C2233      C2234   1.403       .  A
C2233      C2238   1.410       .  A
C2234      C2235   1.400       .  A
C2234      H2239   1.082       .  S
C2235      C2236   1.416       .  A
C2235      C2242   1.445       .  S
C2236      C2237   1.412       .  A
C2237      C2238   1.408       .  A
C2237      H2240   1.085       .  S
C2238      C2241   1.444       .  S
C2241      N2243   1.157       .  T
C2242      N2244   1.157       .  T
C2245      C2246   1.399       .  A
C2246      H2251   1.086       .  S
C2247      C2248   1.405       .  A
C2247      C2254   1.445       .  S
C2248      C2249   1.396       .  A
C2249      C2250   1.385       .  A
C2249      H2252   1.085       .  S
C2250      C2253   1.443       .  S
C2253      N2255   1.157       .  T
C2254      N2256   1.157       .  T
C2257      C2258   1.410       .  A
C2257      C2262   1.409       .  A
C2258      C2259   1.410       .  A
C2258      H2263   1.085       .  S
C2259      C2260   1.415       .  A
C2259      C2266   1.443       .  S
C2260      C2261   1.415       .  A
C2261      C2262   1.410       .  A
C2261      H2264   1.084       .  S
C2262      C2265   1.443       .  S
C2265      N2267   1.157       .  T
C2266      N2268   1.157       .  T
C2269      C2270   1.417       .  A
C2269      C2274   1.412       .  A
C2270      C2271   1.399       .  A
C2270      H2275   1.084       .  S
C2271      C2272   1.404       .  A
C2271      C2278   1.445       .  S
C2272      C2273   1.410       .  A
C2273      C2274   1.407       .  A
C2273      H2276   1.084       .  S
C2274      C2277   1.442   1_545  S
C2277      N2279   1.157       .  T
C2278      N2280   1.157       .  T
C2281      C2282   1.415       .  A
C2281      C2286   1.423       .  A
C2282      C2283   1.421       .  A
C2282      H2287   1.084       .  S
C2283      C2284   1.422       .  A
C2283      C2290   1.443       .  S
C2284      C2285   1.411       .  A
C2285      C2286   1.414       .  A
C2285      H2288   1.084       .  S
C2286      C2289   1.443       .  S
C2289      N2291   1.157       .  T
C2290      N2292   1.158       .  T
C2293      C3222   1.406   1_545  A
C2293      C2298   1.405       .  A
C2294      C3221   1.406       .  A
C2294      C3223   1.396       .  A
C2294      H2299   1.086       .  S
C2295      C3222   1.395       .  A
C2295      C2296   1.405   1_565  A
C2295      C3230   1.444       .  S
C2296      C2297   1.406       .  A
C2297      C2298   1.394       .  A
C2297      H2300   1.081       .  S
C2298      C2301   1.444       .  S
C2301      N2303   1.157   1_655  T
C2302      C3223   1.445       .  S
C2302      N2304   1.157       .  T
C2305      C3234   1.400   1_545  A
C2305      C2310   1.405       .  A
C2306      C3233   1.399       .  A
C2306      C3235   1.392       .  A
C2306      H2311   1.087       .  S
C2307      C3234   1.396       .  A
C2307      C2308   1.409   1_565  A
C2307      C3242   1.439       .  S
C2308      C2309   1.409       .  A
C2309      C2310   1.398       .  A
C2309      H2312   1.086       .  S
C2310      C2313   1.443       .  S
C2313      N2315   1.157       .  T
C2314      C3235   1.439       .  S
C2314      N2316   1.156       .  T
C2317      C2318   1.406   1_545  A
C2317      C2322   1.411       .  A
C2318      C2319   1.408   1_565  A
C2318      H3251   1.085       .  S
C2319      C2320   1.414       .  A
C2319      C3254   1.443   1_545  S
C2320      C2321   1.408       .  A
C2321      C2322   1.406       .  A
C2321      H2324   1.085       .  S
C2322      C2325   1.444       .  S
H2323      C3246   1.085       .  S
C2326      C3247   1.444       .  S
C2326      N2328   1.157       .  T
C2329      C2330   1.408       .  A
C2329      C2334   1.424       .  A
C2330      C2331   1.414       .  A
C2330      H2335   1.085       .  S
C2331      C2332   1.427       .  A
C2331      C2338   1.445       .  S
C2332      C2333   1.409       .  A
C2333      C2334   1.418       .  A
C2333      H2336   1.084       .  S
C2334      C2337   1.443       .  S
C2337      N2339   1.157       .  T
C2338      N2340   1.158       .  T
C2341      C2342   1.407       .  A
C2341      C2346   1.408       .  A
C2342      C2343   1.398       .  A
C2342      H2347   1.085       .  S
C2343      C2344   1.409       .  A
C2343      C2350   1.444       .  S
C2344      C2345   1.405       .  A
C2345      C2346   1.396       .  A
C2345      H2348   1.085       .  S
C2346      C2349   1.444       .  S
C2349      N2351   1.157       .  T
C2350      N2352   1.157       .  T
C2353      C2354   1.397       .  A
C2353      C2358   1.400       .  A
C2354      H2359   1.086       .  S
C2355      C2356   1.407       .  A
C2355      C2362   1.446       .  S
C2357      C2358   1.391       .  A
C2357      H2360   1.086       .  S
C2358      C2361   1.440       .  S
C2361      N2363   1.156       .  T
C2362      N2364   1.157       .  T
C2365      C2366   1.414       .  A
C2365      C2370   1.412       .  A
C2366      C2367   1.405       .  A
C2366      H2371   1.084       .  S
C2367      C2368   1.407       .  A
C2367      C2374   1.445       .  S
C2368      C2369   1.409       .  A
C2369      C2370   1.404       .  A
C2369      H2372   1.085       .  S
C2370      C2373   1.443       .  S
C2373      N2375   1.157       .  T
C2374      N2376   1.158       .  T
C2377      C2378   1.405       .  A
C2377      C2382   1.421       .  A
C2378      C2379   1.398       .  A
C2378      H2383   1.085       .  S
C2379      C2380   1.409       .  A
C2379      C2386   1.444       .  S
C2380      C2381   1.397       .  A
C2381      C2382   1.397       .  A
C2381      H2384   1.086       .  S
C2382      C2385   1.445       .  S
C2385      N2387   1.157       .  T
C2386      N2388   1.157       .  T
C2389      C2390   1.396       .  A
C2389      C2394   1.406       .  A
C2390      C2391   1.389       .  A
C2390      H2395   1.083       .  S
C2391      C2392   1.407       .  A
C2391      C2398   1.441       .  S
C2392      C2393   1.398       .  A
C2393      C2394   1.392       .  A
C2393      H2396   1.085       .  S
C2394      C2397   1.442       .  S
C2397      N2399   1.156       .  T
C2398      N2400   1.156       .  T
C2401      C2402   1.409       .  A
C2401      C2406   1.410       .  A
C2402      C2403   1.406       .  A
C2402      H2407   1.085       .  S
C2403      C2404   1.414       .  A
C2403      C2410   1.444       .  S
C2404      C2405   1.412       .  A
C2405      C2406   1.407       .  A
C2405      H2408   1.085   1_655  S
C2406      C2409   1.444       .  S
C2409      N2411   1.157       .  T
C2413      C2414   1.400       .  A
C2413      C2418   1.426       .  A
C2414      C2415   1.405       .  A
C2414      H2419   1.086       .  S
C2415      C2416   1.424       .  A
C2415      C2422   1.444       .  S
C2416      C2417   1.400       .  A
C2417      C2418   1.406       .  A
C2417      H2420   1.086       .  S
C2418      C2421   1.445       .  S
C2421      N2423   1.158       .  T
C2422      N2424   1.157       .  T
C2425      C2426   1.399       .  A
C2425      C2430   1.409       .  A
C2426      C2427   1.397       .  A
C2426      H2431   1.088       .  S
C2427      C2428   1.422       .  A
C2427      C2434   1.445       .  S
C2428      C2429   1.407       .  A
C2429      C2430   1.404       .  A
C2429      H2432   1.086       .  S
C2430      C2433   1.443       .  S
C2433      N2435   1.157       .  T
C2434      N2436   1.157       .  T
C2437      C2438   1.404       .  A
C2437      C2442   1.407       .  A
C2438      C2439   1.398       .  A
C2438      H2443   1.085       .  S
C2439      C2440   1.410       .  A
C2439      C2446   1.444       .  S
C2440      C2441   1.408       .  A
C2441      C2442   1.395       .  A
C2441      H2444   1.085       .  S
C2442      C2445   1.445       .  S
C2445      N2447   1.157       .  T
C2446      N2448   1.157       .  T
C2449      C2450   1.400       .  A
C2450      H2455   1.086       .  S
C2451      C2452   1.408       .  A
C2452      C2453   1.398       .  A
C2453      C2454   1.397       .  A
C2453      H2456   1.085       .  S
C2454      C2457   1.442       .  S
C2457      N2459   1.157       .  T
C2458      N2460   1.157       .  T
C2461      C2462   1.412       .  A
C2461      C2466   1.421       .  A
C2462      C2463   1.415       .  A
C2462      H2467   1.084       .  S
C2463      C2464   1.422       .  A
C2463      C2470   1.444       .  S
C2464      C2465   1.410       .  A
C2465      C2466   1.411       .  A
C2465      H2468   1.084       .  S
C2466      C2469   1.443   1_556  S
C2469      N2471   1.157       .  T
C2470      N2472   1.158       .  T
C2473      C2474   1.407   1_556  A
C2473      C2478   1.421   1_556  A
C2474      C2475   1.399       .  A
C2474      H2479   1.084       .  S
C2475      C2476   1.405       .  A
C2475      C2482   1.443       .  S
C2476      C2477   1.395       .  A
C2477      C2478   1.396       .  A
C2477      H2480   1.085       .  S
C2478      C2481   1.443       .  S
C2481      N2483   1.157   1_554  T
C2482      N2484   1.157       .  T
C2485      C2486   1.403       .  A
C2485      C2490   1.406       .  A
C2486      C2487   1.398       .  A
C2486      H2491   1.082       .  S
C2487      C2488   1.411       .  A
C2487      C2494   1.444       .  S
C2488      C2489   1.414       .  A
C2489      C2490   1.406       .  A
C2489      H2492   1.085       .  S
C2490      C2493   1.443       .  S
C2493      N2495   1.157       .  T
C2494      N2496   1.157       .  T
C2497      C2498   1.414       .  A
C2497      C2502   1.412       .  A
C2498      C2499   1.407       .  A
C2498      H2503   1.085       .  S
C2499      C2500   1.408       .  A
C2499      C2506   1.443       .  S
C2500      C2501   1.409       .  A
C2501      C2502   1.405       .  A
C2501      H2504   1.085       .  S
C2502      C2505   1.444       .  S
C2505      N2507   1.157       .  T
C2506      N2508   1.157       .  T
C2509      C2893   1.532   1_545  S
C2509      C3438   1.413   1_545  A
C2509      C2514   1.423       .  A
C2510      C3437   1.412       .  A
C2510      C3439   1.418   1_556  A
C2510      H2515   1.084       .  S
C2511      C3438   1.420   1_544  A
C2511      C2512   1.422       .  A
C2511      C3446   1.443   1_545  S
C2512      C2513   1.414   1_554  A
C2513      C2514   1.420       .  A
C2513      H2516   1.084       .  S
C2514      C2517   1.444       .  S
C2517      N2519   1.158       .  T
C2518      C3439   1.443       .  S
C2518      N2520   1.157       .  T
C2521      C2522   1.409       .  A
C2521      C2526   1.412       .  A
C2522      C2523   1.398       .  A
C2522      H2527   1.085       .  S
C2523      C2524   1.404       .  A
C2523      C2530   1.444       .  S
C2524      C2525   1.402       .  A
C2525      C2526   1.392       .  A
C2525      H2528   1.086       .  S
C2526      C2529   1.442       .  S
C2529      N2531   1.156   1_554  T
C2530      N2532   1.157       .  T
C2533      C2534   1.396       .  A
C2533      C2538   1.407       .  A
C2534      C2535   1.384       .  A
C2534      H2539   1.087       .  S
C2535      C2536   1.406       .  A
C2535      C2542   1.443       .  S
C2536      C2537   1.398       .  A
C2537      C2538   1.393       .  A
C2537      H2540   1.085       .  S
C2538      C2541   1.443       .  S
C2541      N2543   1.157       .  T
C2542      N2544   1.157       .  T
C2545      C2546   1.415       .  A
C2545      C3478   1.411       .  A
C2546      C2547   1.408       .  A
C2546      H2551   1.084       .  S
C2547      C3476   1.407       .  A
C2548      C3475   1.405       .  A
C2548      C2549   1.410       .  A
C2549      C2550   1.402       .  A
C2549      H2552   1.085   1_655  S
C2550      C3473   1.410   1_545  A
C2550      C2553   1.444   1_545  S
C2553      N2555   1.157       .  T
C2554      N2556   1.157       .  T
C2557      C2558   1.406       .  A
C2557      C2562   1.407       .  A
C2558      C2559   1.404       .  A
C2558      H2563   1.087       .  S
C2559      C2560   1.415       .  A
C2559      C2566   1.443       .  S
C2560      C2561   1.413       .  A
C2561      C2562   1.410       .  A
C2561      H2564   1.087       .  S
C2562      C2565   1.441       .  S
C2565      N2567   1.157       .  T
C2566      N2568   1.157       .  T
C2569      C2570   1.412       .  A
C2569      C2574   1.419       .  A
C2570      C2571   1.419       .  A
C2570      H2575   1.084       .  S
C2571      C2572   1.421       .  A
C2571      C2578   1.443       .  S
C2572      C2573   1.413       .  A
C2573      C2574   1.413       .  A
C2573      H2576   1.084       .  S
C2574      C2577   1.444       .  S
C2577      N2579   1.157       .  T
C2578      N2580   1.157       .  T
C2581      C2582   1.398       .  A
C2581      C2586   1.410       .  A
C2582      C2583   1.397       .  A
C2582      H2587   1.085       .  S
C2583      C2584   1.420       .  A
C2583      C2590   1.445       .  S
C2584      C2585   1.403       .  A
C2585      C2586   1.396       .  A
C2585      H2588   1.085       .  S
C2586      C2589   1.443       .  S
C2589      N2591   1.157       .  T
C2590      N2592   1.157   1_545  T
C2593      C3522   1.405       .  A
C2593      C2598   1.421       .  A
C2594      C3521   1.406       .  A
C2594      C2595   1.396       .  A
C2594      H2599   1.085       .  S
C2595      C3524   1.407       .  A
C2595      C2602   1.445       .  S
C2596      C2892   1.463       .  S
C2596      C3523   1.408       .  A
C2596      C2597   1.399       .  A
C2597      C2598   1.398       .  A
C2597      H2600   1.086       .  S
C2598      C2601   1.445       .  S
C2601      N2603   1.157       .  T
C2602      N2604   1.157       .  T
C2605      C2606   1.413       .  A
C2605      C2610   1.423       .  A
C2606      C2607   1.419       .  A
C2606      H2611   1.084       .  S
C2607      C2608   1.422       .  A
C2607      C2614   1.443       .  S
C2608      C2609   1.412       .  A
C2609      C2610   1.416       .  A
C2609      H2612   1.085       .  S
C2610      C2613   1.444       .  S
C2613      N2615   1.158       .  T
C2614      N2616   1.157       .  T
C2617      C2618   1.404       .  A
C2617      C2622   1.405       .  A
C2618      C2619   1.394       .  A
C2618      H2623   1.079       .  S
C2619      C2620   1.409       .  A
C2619      C2626   1.445       .  S
C2620      C2621   1.408       .  A
C2621      C2622   1.396       .  A
C2621      H2624   1.084       .  S
C2622      C2625   1.444       .  S
C2625      N2627   1.157       .  T
C2626      N2628   1.157       .  T
C2629      C2630   1.406       .  A
C2629      C2634   1.411       .  A
C2630      C2631   1.393       .  A
C2630      H2635   1.084       .  S
C2631      C2632   1.405       .  A
C2631      C2638   1.444       .  S
C2632      C2633   1.404       .  A
C2633      C2634   1.397       .  A
C2633      H2636   1.085       .  S
C2634      C2637   1.444       .  S
C2637      N2639   1.157       .  T
C2638      N2640   1.157       .  T
C2641      C2642   1.401       .  A
C2641      C2646   1.405       .  A
C2642      C2643   1.390       .  A
C2642      H2647   1.085       .  S
C2643      C2644   1.402       .  A
C2643      C2650   1.442       .  S
C2644      C2645   1.396       .  A
C2645      C2646   1.379       .  A
C2645      H2648   1.083       .  S
C2646      C2649   1.447       .  S
C2649      N2651   1.157       .  T
C2650      N2652   1.157       .  T
C2653      C2658   1.423   1_655  A
C2654      C2655   1.413       .  A
C2654      H2659   1.083       .  S
C2655      C2656   1.422       .  A
C2655      C2662   1.444       .  S
C2656      C2657   1.408       .  A
C2657      H2660   1.083       .  S
C2658      C2661   1.444       .  S
C2661      N2663   1.157       .  T
C2662      N2664   1.158       .  T
C2665      C2666   1.404       .  A
C2665      C2670   1.410       .  A
C2666      C2667   1.395       .  A
C2666      H2671   1.085       .  S
C2667      C2668   1.408       .  A
C2667      C2674   1.444       .  S
C2668      C2669   1.405       .  A
C2669      C2670   1.396       .  A
C2669      H2672   1.085       .  S
C2670      C2673   1.445       .  S
C2673      N2675   1.157       .  T
C2674      N2676   1.157       .  T
C2677      C2678   1.402       .  A
C2677      C2682   1.408       .  A
C2678      C2679   1.394       .  A
C2678      H2683   1.086       .  S
C2679      C2680   1.409       .  A
C2679      C2686   1.443       .  S
C2680      C2681   1.403       .  A
C2681      C2682   1.398       .  A
C2681      H2684   1.086       .  S
C2682      C2685   1.443       .  S
C2685      N2687   1.157       .  T
C2686      N2688   1.157   1_655  T
C2689      C2690   1.413       .  A
C2689      C2694   1.413       .  A
C2690      C2691   1.406       .  A
C2690      H2695   1.085       .  S
C2691      C2692   1.406       .  A
C2691      C2698   1.443       .  S
C2692      C2693   1.406       .  A
C2693      C2694   1.404       .  A
C2693      H2696   1.081       .  S
C2694      C2697   1.444       .  S
C2697      N2699   1.157       .  T
C2698      N2700   1.157       .  T
C2701      C2702   1.412       .  A
C2701      C2706   1.415       .  A
C2702      C2703   1.403       .  A
C2702      H2707   1.085       .  S
C2703      C2704   1.407       .  A
C2703      C2710   1.444       .  S
C2704      C2705   1.406       .  A
C2705      C2706   1.403       .  A
C2705      H2708   1.086       .  S
C2706      C2709   1.444       .  S
C2709      N2711   1.157       .  T
C2710      N2712   1.157       .  T
C2713      C2800   1.521   1_545  S
C2713      C2714   1.410       .  A
C2713      C3646   1.423   1_545  A
C2714      C2715   1.413       .  A
C2714      H2719   1.084       .  S
C2715      C2722   1.443       .  S
C2716      C2717   1.410   1_645  A
C2717      H3648   1.084   1_455  S
C2718      C3641   1.423       .  A
C2718      C2721   1.444       .  S
H2720      C3645   1.084   1_655  S
C2721      N2723   1.157       .  T
C2722      N2724   1.157       .  T
C2725      C2726   1.407       .  A
C2725      C3658   1.419       .  A
C2726      C2727   1.397       .  A
C2726      H2731   1.085       .  S
C2727      C2728   1.408       .  A
C2727      C2734   1.445       .  S
C2728      C2804   1.458       .  S
C2728      C3657   1.397       .  A
C2729      C3656   1.396       .  A
C2729      C2730   1.396       .  A
C2729      H2732   1.086       .  S
C2730      C3653   1.421       .  A
C2730      C2733   1.445       .  S
C2733      N2735   1.157       .  T
C2734      N2736   1.157   1_545  T
C2737      C2738   1.406       .  A
C2737      C2742   1.408       .  A
C2738      C2739   1.398       .  A
C2738      H3671   1.085       .  S
C2739      C2740   1.406       .  A
C2739      C3674   1.444       .  S
C2740      C2741   1.407       .  A
C2741      C2742   1.401       .  A
C2741      H2744   1.085       .  S
C2742      C2745   1.444       .  S
H2743      C3666   1.085       .  S
C2745      N2747   1.157       .  T
C2746      C3667   1.443   1_545  S
C2746      N2748   1.157       .  T
C2749      C2750   1.394       .  A
C2749      C2754   1.409       .  A
C2750      H2755   1.084       .  S
C2751      C2752   1.407       .  A
C2751      C2758   1.439       .  S
C2753      C2754   1.394       .  A
C2753      H2756   1.085       .  S
C2754      C2757   1.441       .  S
C2757      N2759   1.156       .  T
C2758      N2760   1.155       .  T
C2761      C2762   1.405       .  A
C2761      C2766   1.427       .  A
C2762      C3691   1.410       .  A
C2762      H2767   1.085       .  S
C2763      C3690   1.410       .  A
C2763      C2764   1.421       .  A
C2763      C2770   1.444       .  S
C2764      C2765   1.400       .  A
C2765      C3694   1.410       .  A
C2765      H2768   1.086       .  S
C2766      C3693   1.410       .  A
C2766      C2769   1.444       .  S
C2769      N2771   1.157       .  T
C2770      N2772   1.157       .  T
C2773      C2774   1.413       .  A
C2773      C2778   1.411       .  A
C2774      C2775   1.402       .  A
C2774      H2779   1.084       .  S
C2775      C2776   1.405       .  A
C2775      C2782   1.443       .  S
C2776      C2777   1.408       .  A
C2777      C2778   1.401       .  A
C2777      H2780   1.084       .  S
C2778      C2781   1.445       .  S
C2781      N2783   1.157       .  T
C2782      N2784   1.157       .  T
O2785      C2800   1.269       .  A
O2785     Al2793   1.952       .  S
C2786      O2796   1.260       .  A
C2786      O2787   1.273       .  A
C2786      C3689   1.511       .  S
O2787     Al2789   1.952       .  S
O2788      C2790   1.270       .  A
O2788     Al2789   1.931       .  S
Al2789     O2798   1.779       .  S
C2790      O2803   1.260       .  A
C2790      C3665   1.476       .  S
O2791      C2801   1.274       .  A
O2791     Al2793   1.959       .  S
O2792      C2805   1.255       .  A
O2792     Al2802   1.908       .  S
Al2793     O2806   1.883       .  S
Al2793     O2803   1.882       .  S
Al2793     O2798   1.769       .  S
O2794      C2801   1.260       .  A
O2794     Al2802   1.879       .  S
O2795      C2804   1.254   1_565  A
O2795     Al2802   1.858       .  S
O2796     Al2802   1.911       .  S
O2798     Al2802   1.776       .  S
C2801      C3701   1.487       .  S
C2805      O2806   1.259       .  A
C2805      C3677   1.450       .  S
O2807      C2822   1.267       .  A
O2807     Al2815   1.950       .  S
C2808      O2818   1.261       .  A
C2808      O2809   1.268       .  A
C2808      C3617   1.502       .  S
O2809     Al2811   1.935       .  S
O2810      C2812   1.271       .  A
O2810     Al2811   1.932       .  S
Al2811     O2819   1.955       .  S
Al2811     O2821   1.947       .  S
Al2811     O2820   1.786       .  S
C2812      O2825   1.257       .  A
C2812      C3593   1.465       .  S
O2813      C2823   1.271       .  A
O2813     Al2815   1.958       .  S
O2814      C2827   1.260       .  A
O2814     Al2824   1.920       .  S
Al2815     O2828   1.874       .  S
Al2815     O2825   1.858       .  S
Al2815     O2820   1.769       .  S
O2816      C2823   1.261       .  A
O2816     Al2824   1.890       .  S
O2817      C2826   1.254       .  A
O2817     Al2824   1.850       .  S
O2818     Al2824   1.910       .  S
O2819      C2826   1.271       .  A
O2820     Al2824   1.777       .  S
O2821      C2822   1.271       .  A
C2822      C3581   1.526       .  S
C2823      C3629   1.494       .  S
C2826      C3605   1.463       .  S
C2827      O2828   1.259       .  A
C2827      C3680   1.452       .  S
O2829      C2844   1.258       .  A
O2829     Al2837   1.885       .  S
C2830      O2840   1.267       .  A
C2830      O2831   1.254       .  A
C2830      C3704   1.485       .  S
O2831     Al2833   1.884       .  S
O2832      C2834   1.261       .  A
O2832     Al2833   1.893       .  S
Al2833     O2841   1.839       .  S
Al2833     O2843   1.882       .  S
Al2833     O2842   1.776       .  S
C2834      O2847   1.278       .  A
C2834      C3620   1.490       .  S
O2835      C2845   1.261       .  A
O2835     Al2837   1.875       .  S
O2836      C2849   1.269       .  A
O2836     Al2846   1.940       .  S
Al2837     O2850   1.965       .  S
Al2837     O2847   1.989       .  S
Al2837     O2842   1.769       .  S
O2838      C2845   1.270       .  A
O2838     Al2846   1.919       .  S
O2839      C2848   1.272       .  A
O2839     Al2846   1.958       .  S
O2840     Al2846   1.940       .  S
O2841      C2848   1.254       .  A
O2842     Al2846   1.777       .  S
O2843      C2844   1.253       .  A
C2844      C3572   1.432       .  S
C2845      C3557   1.469       .  S
C2848      C3545   1.465       .  S
C2849      O2850   1.271       .  A
C2849      C3536   1.528       .  S
O2851      C2866   1.257       .  A
O2851     Al2859   1.860       .  S
C2852      C3632   1.484       .  S
O2853     Al2855   1.910       .  S
O2854      C2856   1.263       .  A
O2854     Al2855   1.896       .  S
Al2855     O2863   1.851       .  S
Al2855     O2865   1.886       .  S
Al2855     O2864   1.778       .  S
C2856      O2869   1.276       .  A
C2856      C3692   1.503       .  S
O2857      C2867   1.261       .  A
O2857     Al2859   1.876       .  S
O2858      C2871   1.271       .  A
O2858     Al2868   1.942       .  S
Al2859     O2872   1.961       .  S
Al2859     O2869   1.979       .  S
Al2859     O2864   1.763       .  S
O2860      C2867   1.268       .  A
O2860     Al2868   1.922       .  S
O2861      C2870   1.270       .  A
O2861     Al2868   1.955       .  S
O2862     Al2868   1.920       .  S
O2863      C2870   1.250       .  A
O2864     Al2868   1.781       .  S
O2865      C2866   1.254       .  A
C2866      C3569   1.439       .  S
C2867      C3521   1.479       .  S
C2870      C3509   1.463       .  S
C2871      O2872   1.271       .  A
C2871      C3497   1.526       .  S
O2873      C2888   1.257       .  A
O2873     Al2881   1.879       .  S
C2874      O2884   1.271       .  A
C2874      O2875   1.260       .  A
C2874      C3473   1.493       .  S
O2875     Al2877   1.905       .  S
O2876      C2878   1.259       .  A
O2876     Al2877   1.885       .  S
Al2877     O2885   1.859       .  S
Al2877     O2887   1.894       .  S
Al2877     O2886   1.771       .  S
C2878      O2891   1.279       .  A
C2878      C3485   1.489       .  S
O2879      C2889   1.257       .  A
O2879     Al2881   1.869       .  S
Al2881     O2894   1.985       .  S
Al2881     O2891   1.991       .  S
Al2881     O2886   1.765       .  S
O2882      C2889   1.269       .  A
O2882     Al2890   1.930       .  S
O2884     Al2890   1.937       .  S
O2885      C2892   1.253   1_565  A
O2886     Al2890   1.779       .  S
O2887      C2888   1.254       .  A
C2888      C3464   1.441       .  S
C2889      C3449   1.477       .  S
C2893      O2894   1.277       .  A
O2895      C2910   1.259       .  A
O2895     Al2903   1.859       .  S
C2896      O2906   1.265       .  A
C2896      O2897   1.258       .  A
C2896      C3416   1.488       .  S
O2897     Al2899   1.896       .  S
O2898      C2900   1.259       .  A
O2898     Al2899   1.878       .  S
Al2899     O2907   1.852       .  S
Al2899     O2909   1.901       .  S
Al2899     O2908   1.782       .  S
C2900      O2913   1.273       .  A
C2900      C3428   1.490       .  S
O2901      C2911   1.265       .  A
O2901     Al2903   1.890       .  S
O2902      C2915   1.267       .  A
O2902     Al2912   1.929       .  S
Al2903     O2916   1.949       .  S
Al2903     O2913   1.966       .  S
Al2903     O2908   1.774       .  S
O2904      C2911   1.265       .  A
O2904     Al2912   1.903       .  S
O2905      C2914   1.266       .  A
O2905     Al2912   1.933       .  S
O2906     Al2912   1.914       .  S
O2907      C2914   1.253       .  A
O2908     Al2912   1.776       .  S
O2909      C2910   1.255       .  A
C2910      C3461   1.446       .  S
C2911      C3401   1.484       .  S
C2914      C3560   1.458       .  S
C2915      O2916   1.268       .  A
C2915      C3392   1.519       .  S
O2917      C2932   1.276       .  A
O2917     Al2925   1.976       .  S
C2918      C3425   1.489       .  S
O2919     Al2921   1.932       .  S
O2920      C2922   1.264       .  A
O2920     Al2921   1.911       .  S
Al2921     O2929   1.945       .  S
Al2921     O2931   1.927       .  S
Al2921     O2930   1.783       .  S
C2922      O2935   1.261       .  A
C2922      C3653   1.482       .  S
O2923      C2933   1.277       .  A
O2923     Al2925   1.976       .  S
O2924      C2937   1.254       .  A
O2924     Al2934   1.894       .  S
Al2925     O2938   1.894       .  S
Al2925     O2935   1.888       .  S
Al2925     O2930   1.776       .  S
O2926      C2933   1.260       .  A
O2926     Al2934   1.877       .  S
O2927      C2936   1.254       .  A
O2927     Al2934   1.854       .  S
O2928     Al2934   1.920       .  S
O2929      C2936   1.267       .  A
O2930     Al2934   1.775       .  S
O2931      C2932   1.270       .  A
C2932      C3533   1.527       .  S
C2936      C3368   1.461       .  S
C2937      O2938   1.261       .  A
C2937      C3380   1.454       .  S
O2939      C2954   1.269       .  A
O2939     Al2947   1.945       .  S
C2940      O2950   1.269       .  A
C2940      O2941   1.278       .  A
C2940      C3488   1.506       .  S
O2941     Al2943   1.966       .  S
O2942      C2944   1.269       .  A
O2942     Al2943   1.916       .  S
Al2943     O2951   1.943       .  S
Al2943     O2953   1.925       .  S
Al2943     O2952   1.781       .  S
C2944      O2957   1.253       .  A
C2944      C3608   1.468       .  S
O2945     Al2947   1.938       .  S
O2946      C2959   1.264       .  A
O2946     Al2956   1.904       .  S
Al2947     O2960   1.883       .  S
Al2947     O2957   1.859       .  S
Al2947     O2952   1.785       .  S
O2948     Al2956   1.865       .  S
O2949      C2958   1.246       .  A
O2949     Al2956   1.851       .  S
O2950     Al2956   1.904       .  S
O2951      C2958   1.262       .  A
O2952     Al2956   1.796       .  S
O2953      C2954   1.264       .  A
C2954      C3500   1.521       .  S
C2955      C3413   1.474       .  S
C2958      C3353   1.462       .  S
C2959      O2960   1.264       .  A
C2959      C3377   1.451       .  S
O2961      C2976   1.273       .  A
O2961     Al2969   1.962       .  S
C2962      O2972   1.264       .  A
C2962      O2963   1.268       .  A
C2962      C3329   1.484       .  S
O2963     Al2965   1.922       .  S
O2964      C2966   1.267   1_554  A
O2964     Al2965   1.924       .  S
Al2965     O2973   1.955       .  S
Al2965     O2975   1.929       .  S
Al2965     O2974   1.776       .  S
C2966      O2979   1.263   1_556  A
C2966      C3356   1.488       .  S
O2967      C2977   1.276       .  A
O2967     Al2969   1.975       .  S
O2968      C2981   1.258       .  A
O2968     Al2978   1.919       .  S
Al2969     O2982   1.857       .  S
Al2969     O2979   1.889       .  S
Al2969     O2974   1.765       .  S
O2970      C2977   1.257       .  A
O2970     Al2978   1.872       .  S
O2971      C2980   1.250       .  A
O2971     Al2978   1.848       .  S
O2972     Al2978   1.931       .  S
O2973      C2980   1.270       .  A
O2974     Al2978   1.774       .  S
O2975      C2976   1.271       .  A
C2976      C3389   1.520   1_554  S
C2977      C3344   1.491       .  S
C2980      C3308   1.464       .  S
C2981      O2982   1.256       .  A
C2981      C3317   1.457       .  S
O2983      C2998   1.260       .  A
O2983     Al2991   1.898       .  S
C2984      O2994   1.266       .  A
C2984      O2985   1.256       .  A
C2984      C3296   1.492       .  S
O2985     Al2987   1.893       .  S
O2986      C2988   1.266       .  A
O2986     Al2987   1.895       .  S
Al2987     O2995   1.855       .  S
Al2987     O2997   1.883       .  S
Al2987     O2996   1.780       .  S
C2988      O3001   1.273       .  A
O2989      C2999   1.260       .  A
O2989     Al2991   1.878       .  S
O2990      C3003   1.266       .  A
O2990     Al3000   1.927       .  S
Al2991     O3004   1.943       .  S
Al2991     O3001   1.960       .  S
Al2991     O2996   1.770       .  S
O2992      C2999   1.268       .  A
O2992     Al3000   1.912       .  S
O2993      C3002   1.269       .  A
O2993     Al3000   1.941       .  S
O2994     Al3000   1.931       .  S
O2995      C3002   1.256       .  A
O2996     Al3000   1.782       .  S
O2997      C2998   1.251       .  A
C2998      C3281   1.441       .  S
C2999      C3272   1.469       .  S
C3002      C3404   1.453       .  S
C3003      O3004   1.268       .  A
C3003      C3257   1.517       .  S
O3005      C3020   1.275       .  A
O3005     Al3013   1.985       .  S
C3006      O3016   1.267       .  A
C3006      O3007   1.268       .  A
C3006      C3248   1.501       .  S
O3007     Al3009   1.926       .  S
O3008      C3010   1.272   1_554  A
O3008     Al3009   1.945       .  S
Al3009     O3017   1.957       .  S
Al3009     O3019   1.929       .  S
Al3009     O3018   1.782       .  S
C3010      O3023   1.255   1_556  A
C3010      C3365   1.475       .  S
O3011      C3021   1.273       .  A
O3011     Al3013   1.971       .  S
O3012      C3025   1.262       .  A
O3012     Al3022   1.926       .  S
Al3013     O3026   1.870       .  S
Al3013     O3023   1.856       .  S
Al3013     O3018   1.767       .  S
O3014      C3021   1.256       .  A
O3014     Al3022   1.885       .  S
O3015      C3024   1.251       .  A
O3015     Al3022   1.847       .  S
O3016     Al3022   1.935       .  S
O3017      C3024   1.271       .  A
O3018     Al3022   1.772       .  S
O3019      C3020   1.268       .  A
C3020      C3440   1.532       .  S
C3021      C3293   1.482       .  S
C3024      C3236   1.465       .  S
C3025      O3026   1.258       .  A
C3025      C3320   1.450       .  S
O3027      C3042   1.259       .  A
O3027     Al3035   1.878       .  S
C3028      O3038   1.269       .  A
C3028      O3029   1.254       .  A
C3028      C3341   1.491       .  S
Al3031     O3039   1.842       .  S
Al3031     O3041   1.895       .  S
Al3031     O3040   1.774       .  S
C3032      C3245   1.495       .  S
O3033     Al3035   1.876       .  S
O3034      C3047   1.267       .  A
O3034     Al3044   1.935       .  S
Al3035     O3048   1.963       .  S
Al3035     O3040   1.772       .  S
O3036      C3043   1.269       .  A
O3037      C3046   1.269       .  A
O3037     Al3044   1.944       .  S
O3039      C3046   1.255       .  A
O3040     Al3044   1.778       .  S
O3041      C3042   1.257       .  A
C3042      C3284   1.450       .  S
C3043      C3221   1.459       .  S
C3046      C3452   1.459       .  S
C3047      O3048   1.270       .  A
C3047      C3212   1.525       .  S
O3049      C3064   1.259       .  A
O3049     Al3057   1.879       .  S
C3050      O3060   1.265       .  A
C3050      O3051   1.259       .  A
C3050      C3200   1.486       .  S
O3051     Al3053   1.902       .  S
O3052      C3054   1.263       .  A
O3052     Al3053   1.896       .  S
Al3053     O3061   1.839       .  S
Al3053     O3063   1.901       .  S
Al3053     O3062   1.782       .  S
C3054      O3067   1.272       .  A
C3054      C3185   1.499       .  S
O3055      C3065   1.267       .  A
O3055     Al3057   1.887       .  S
O3056      C3069   1.267       .  A
O3056     Al3066   1.934       .  S
Al3057     O3070   1.937       .  S
Al3057     O3067   1.969       .  S
Al3057     O3062   1.773       .  S
O3058      C3065   1.267       .  A
O3058     Al3066   1.913       .  S
O3059      C3068   1.265       .  A
O3059     Al3066   1.933       .  S
O3060     Al3066   1.918       .  S
O3061      C3068   1.253       .  A
O3062     Al3066   1.786       .  S
O3063      C3064   1.257       .  A
C3064      C3173   1.443       .  S
C3065      C3512   1.479       .  S
C3068      C3224   1.459       .  S
C3069      O3070   1.264       .  A
C3069      C3644   1.518       .  S
O3071      C3086   1.258       .  A
O3071     Al3079   1.870       .  S
C3072      O3082   1.270       .  A
C3072      O3073   1.259       .  A
C3072      C3152   1.503       .  S
O3073     Al3075   1.898       .  S
O3074      C3076   1.260       .  A
O3074     Al3075   1.895       .  S
Al3075     O3083   1.850       .  S
Al3075     O3085   1.903       .  S
Al3075     O3084   1.779       .  S
C3076      O3089   1.273       .  A
C3076      C3164   1.500       .  S
O3077      C3087   1.262       .  A
O3077     Al3079   1.873       .  S
O3078      C3091   1.271       .  A
O3078     Al3088   1.948       .  S
Al3079     O3092   1.947       .  S
Al3079     O3089   1.967       .  S
Al3079     O3084   1.767       .  S
O3080      C3087   1.270       .  A
O3080     Al3088   1.926       .  S
O3081      C3090   1.269       .  A
O3081     Al3088   1.945       .  S
O3082     Al3088   1.941       .  S
O3083      C3090   1.252       .  A
O3084     Al3088   1.780       .  S
O3085      C3086   1.257       .  A
C3086      C3176   1.446       .  S
C3087      C3548   1.473       .  S
C3090      C3269   1.462       .  S
C3091      O3092   1.267       .  A
C3091      C3584   1.526       .  S
O3093      C3108   1.277       .  A
O3093     Al3101   1.986       .  S
C3094      O3104   1.263       .  A
C3094      O3095   1.271       .  A
C3094      C3188   1.502       .  S
O3095     Al3097   1.939       .  S
O3096      C3098   1.264       .  A
O3096     Al3097   1.918       .  S
Al3097     O3105   1.938       .  S
Al3097     O3107   1.919       .  S
Al3097     O3106   1.783       .  S
C3098      O3111   1.259       .  A
C3098      C3305   1.476       .  S
O3099      C3109   1.276       .  A
O3099     Al3101   1.970       .  S
O3100      C3113   1.253       .  A
O3100     Al3110   1.890       .  S
Al3101     O3114   1.895       .  S
Al3101     O3111   1.874       .  S
Al3101     O3106   1.771       .  S
O3102      C3109   1.261       .  A
O3102     Al3110   1.881       .  S
O3103      C3112   1.253       .  A
O3103     Al3110   1.856       .  S
O3104     Al3110   1.924       .  S
O3105      C3112   1.267       .  A
O3106     Al3110   1.776       .  S
O3107      C3108   1.268       .  A
C3108      C3209   1.528       .  S
C3109      C3149   1.489       .  S
C3112      C3596   1.461       .  S
C3113      O3114   1.261       .  A
C3113      C3137   1.452       .  S
O3115      C3130   1.267       .  A
O3115     Al3123   1.950       .  S
C3116      O3126   1.268       .  A
C3116      O3117   1.273       .  A
C3116      C3161   1.490       .  S
O3118      C3120   1.269       .  A
Al3119     O3127   1.943       .  S
Al3119     O3129   1.899       .  S
Al3119     O3128   1.781       .  S
C3120      C3233   1.458       .  S
O3121     Al3123   1.946       .  S
O3122      C3135   1.262       .  A
O3122     Al3132   1.893       .  S
Al3123     O3136   1.874       .  S
Al3123     O3133   1.869       .  S
Al3123     O3128   1.785       .  S
O3124     Al3132   1.859       .  S
O3125      C3134   1.248       .  A
O3125     Al3132   1.872       .  S
O3127      C3134   1.263       .  A
O3128     Al3132   1.794       .  S
O3129      C3130   1.257       .  A
C3130      C3260   1.519       .  S
C3131      C3197   1.501       .  S
C3134      C3668   1.462       .  S
C3135      O3136   1.265       .  A
C3135      C3140   1.446       .  S
C3137      C3138   1.398       .  A
C3137      C3142   1.409       .  A
C3138      C3139   1.396       .  A
C3138      H3143   1.085       .  S
C3139      C3140   1.407       .  A
C3139      C3146   1.444       .  S
C3140      C3141   1.399       .  A
C3141      C3142   1.392       .  A
C3141      H3144   1.086       .  S
C3142      C3145   1.444       .  S
C3145      N3147   1.157       .  T
C3146      N3148   1.157       .  T
C3149      C3150   1.410       .  A
C3149      C3154   1.404       .  A
C3150      C3151   1.408       .  A
C3150      H3155   1.085       .  S
C3151      C3152   1.414       .  A
C3151      C3158   1.444       .  S
C3152      C3153   1.417       .  A
C3153      C3154   1.406       .  A
C3153      H3156   1.084       .  S
C3154      C3157   1.443       .  S
C3157      N3159   1.157       .  T
C3158      N3160   1.158       .  T
C3161      C3162   1.403       .  A
C3161      C3166   1.410       .  A
C3162      C3163   1.401       .  A
C3162      H3167   1.081       .  S
C3163      C3164   1.416       .  A
C3163      C3170   1.444       .  S
C3164      C3165   1.414       .  A
C3165      C3166   1.412       .  A
C3165      H3168   1.084       .  S
C3166      C3169   1.444       .  S
C3169      N3171   1.157       .  T
C3170      N3172   1.157       .  T
C3173      C3174   1.398       .  A
C3174      H3179   1.086       .  S
C3175      C3176   1.406       .  A
C3175      C3182   1.446       .  S
C3176      C3177   1.397       .  A
C3177      C3178   1.390       .  A
C3177      H3180   1.085       .  S
C3178      C3181   1.442       .  S
C3181      N3183   1.157       .  T
C3182      N3184   1.157       .  T
C3185      C3186   1.411       .  A
C3185      C3190   1.411       .  A
C3186      C3187   1.409       .  A
C3186      H3191   1.084       .  S
C3187      C3188   1.412       .  A
C3187      C3194   1.444       .  S
C3188      C3189   1.413       .  A
C3189      C3190   1.409       .  A
C3189      H3192   1.084       .  S
C3190      C3193   1.443       .  S
C3193      N3195   1.157       .  T
C3194      N3196   1.157       .  T
C3197      C3198   1.419       .  A
C3197      C3202   1.410       .  A
C3198      C3199   1.399       .  A
C3198      H3203   1.084       .  S
C3199      C3200   1.404       .  A
C3199      C3206   1.445       .  S
C3200      C3201   1.411       .  A
C3201      C3202   1.408       .  A
C3201      H3204   1.084       .  S
C3202      C3205   1.442       .  S
C3205      N3207   1.157       .  T
C3206      N3208   1.158       .  T
C3209      C3210   1.413       .  A
C3209      C3214   1.423       .  A
C3210      C3211   1.420       .  A
C3210      H3215   1.084       .  S
C3211      C3212   1.421       .  A
C3211      C3218   1.443       .  S
C3212      C3213   1.411       .  A
C3213      C3214   1.415       .  A
C3213      H3216   1.085       .  S
C3214      C3217   1.444       .  S
C3217      N3219   1.157       .  T
C3218      N3220   1.157       .  T
C3221      C3226   1.403       .  A
C3222      H3227   1.085       .  S
C3223      C3224   1.407       .  A
C3224      C3225   1.403       .  A
C3225      C3226   1.389       .  A
C3225      H3228   1.084       .  S
C3226      C3229   1.444       .  S
C3229      N3231   1.157   1_655  T
C3230      N3232   1.157       .  T
C3233      C3238   1.407       .  A
C3234      H3239   1.087       .  S
C3235      C3236   1.407       .  A
C3236      C3237   1.409       .  A
C3237      C3238   1.400       .  A
C3237      H3240   1.086       .  S
C3238      C3241   1.444       .  S
C3241      N3243   1.157       .  T
C3242      N3244   1.156       .  T
C3245      C3246   1.407       .  A
C3245      C3250   1.411       .  A
C3246      C3247   1.410       .  A
C3247      C3248   1.416       .  A
C3248      C3249   1.409       .  A
C3249      C3250   1.410       .  A
C3249      H3252   1.085       .  S
C3250      C3253   1.443       .  S
C3254      N3256   1.157       .  T
C3257      C3258   1.407       .  A
C3257      C3262   1.423       .  A
C3258      C3259   1.409       .  A
C3258      H3263   1.085       .  S
C3259      C3260   1.424       .  A
C3259      C3266   1.445       .  S
C3260      C3261   1.410       .  A
C3261      C3262   1.418       .  A
C3261      H3264   1.084       .  S
C3262      C3265   1.443       .  S
C3265      N3267   1.157       .  T
C3266      N3268   1.157       .  T
C3269      C3270   1.407       .  A
C3269      C3274   1.407       .  A
C3270      C3271   1.399       .  A
C3270      H3275   1.085       .  S
C3271      C3272   1.409       .  A
C3271      C3278   1.445       .  S
C3272      C3273   1.404       .  A
C3273      C3274   1.393       .  A
C3273      H3276   1.086       .  S
C3274      C3277   1.445       .  S
C3277      N3279   1.157       .  T
C3278      N3280   1.157       .  T
C3281      C3282   1.398       .  A
C3281      C3286   1.401       .  A
C3282      H3287   1.086       .  S
C3283      C3284   1.406       .  A
C3283      C3290   1.445       .  S
C3285      C3286   1.390       .  A
C3285      H3288   1.086       .  S
C3286      C3289   1.440       .  S
C3289      N3291   1.156       .  T
C3290      N3292   1.157       .  T
C3293      C3294   1.407       .  A
C3293      C3298   1.404       .  A
C3294      C3295   1.404       .  A
C3294      H3299   1.084       .  S
C3295      C3296   1.412       .  A
C3295      C3302   1.444       .  S
C3296      C3297   1.413       .  A
C3297      C3298   1.405       .  A
C3297      H3300   1.085       .  S
C3298      C3301   1.442       .  S
C3301      N3303   1.157       .  T
C3302      N3304   1.157       .  T
C3305      C3306   1.402       .  A
C3305      C3310   1.419       .  A
C3306      C3307   1.394       .  A
C3306      H3311   1.085       .  S
C3307      C3308   1.413       .  A
C3307      C3314   1.446       .  S
C3308      C3309   1.399       .  A
C3309      C3310   1.398       .  A
C3309      H3312   1.085       .  S
C3310      C3313   1.445       .  S
C3313      N3315   1.157       .  T
C3314      N3316   1.157       .  T
C3317      C3318   1.397       .  A
C3317      C3322   1.410       .  A
C3318      C3319   1.384       .  A
C3318      H3323   1.086       .  S
C3319      C3320   1.409       .  A
C3319      C3326   1.444       .  S
C3320      C3321   1.399       .  A
C3321      C3322   1.398       .  A
C3321      H3324   1.086       .  S
C3322      C3325   1.442       .  S
C3325      N3327   1.157       .  T
C3326      N3328   1.157       .  T
C3329      C3330   1.404       .  A
C3329      C3334   1.407       .  A
C3330      C3331   1.406       .  A
C3330      H3335   1.085       .  S
C3331      C3332   1.419       .  A
C3331      C3338   1.444       .  S
C3332      C3333   1.412       .  A
C3333      C3334   1.405       .  A
C3333      H3336   1.084   1_655  S
C3334      C3337   1.444       .  S
C3337      N3339   1.157       .  T
C3341      C3342   1.398       .  A
C3341      C3346   1.424       .  A
C3342      C3343   1.403       .  A
C3342      H3347   1.086       .  S
C3343      C3344   1.425       .  A
C3343      C3350   1.445       .  S
C3344      C3345   1.398       .  A
C3345      C3346   1.403       .  A
C3345      H3348   1.086       .  S
C3346      C3349   1.445       .  S
C3349      N3351   1.157       .  T
C3350      N3352   1.157       .  T
C3353      C3354   1.400       .  A
C3353      C3358   1.409       .  A
C3354      C3355   1.397       .  A
C3354      H3359   1.088       .  S
C3355      C3356   1.422       .  A
C3355      C3362   1.445       .  S
C3356      C3357   1.406       .  A
C3357      C3358   1.403       .  A
C3357      H3360   1.086       .  S
C3358      C3361   1.442       .  S
C3361      N3363   1.156       .  T
C3362      N3364   1.157       .  T
C3365      C3366   1.406       .  A
C3365      C3370   1.417       .  A
C3366      C3367   1.398       .  A
C3366      H3371   1.084       .  S
C3367      C3368   1.408       .  A
C3367      C3374   1.444       .  S
C3368      C3369   1.400       .  A
C3369      C3370   1.392       .  A
C3369      H3372   1.085       .  S
C3370      C3373   1.445       .  S
C3373      N3375   1.157       .  T
C3374      N3376   1.157       .  T
C3377      C3378   1.400       .  A
C3378      H3383   1.086       .  S
C3379      C3380   1.408       .  A
C3380      C3381   1.399       .  A
C3381      C3382   1.398       .  A
C3381      H3384   1.085       .  S
C3382      C3385   1.442       .  S
C3385      N3387   1.157       .  T
C3386      N3388   1.157       .  T
C3389      C3390   1.412       .  A
C3389      C3394   1.420   1_556  A
C3390      C3391   1.414       .  A
C3390      H3395   1.084       .  S
C3391      C3392   1.420       .  A
C3391      C3398   1.443       .  S
C3392      C3393   1.412       .  A
C3393      C3394   1.413   1_556  A
C3393      H3396   1.084       .  S
C3394      C3397   1.443       .  S
C3397      N3399   1.157       .  T
C3398      N3400   1.157       .  T
C3401      C3402   1.409   1_556  A
C3401      C3406   1.424   1_556  A
C3402      C3403   1.401       .  A
C3402      H3407   1.083       .  S
C3403      C3404   1.405       .  A
C3403      C3410   1.444       .  S
C3404      C3405   1.393       .  A
C3405      C3406   1.393       .  A
C3405      H3408   1.085       .  S
C3406      C3409   1.446   1_554  S
C3409      N3411   1.157       .  T
C3410      N3412   1.157       .  T
C3413      C3414   1.404       .  A
C3413      C3418   1.404       .  A
C3414      C3415   1.396       .  A
C3414      H3419   1.084       .  S
C3415      C3416   1.412       .  A
C3415      C3422   1.444       .  S
C3416      C3417   1.414       .  A
C3417      C3418   1.404       .  A
C3417      H3420   1.085       .  S
C3418      C3421   1.443       .  S
C3421      N3423   1.157       .  T
C3422      N3424   1.157       .  T
C3425      C3426   1.411       .  A
C3425      C3430   1.409       .  A
C3426      C3427   1.405       .  A
C3426      H3431   1.085       .  S
C3427      C3428   1.409       .  A
C3427      C3434   1.443       .  S
C3428      C3429   1.411       .  A
C3429      C3430   1.404       .  A
C3429      H3432   1.085       .  S
C3430      C3433   1.444       .  S
C3433      N3435   1.157       .  T
C3434      N3436   1.157       .  T
C3437      C3442   1.424       .  A
C3438      H3443   1.084       .  S
C3439      C3440   1.424       .  A
C3440      C3441   1.414   1_554  A
C3441      C3442   1.421       .  A
C3441      H3444   1.084       .  S
C3442      C3445   1.443       .  S
C3445      N3447   1.158       .  T
C3446      N3448   1.157       .  T
C3449      C3450   1.409   1_556  A
C3449      C3454   1.415   1_556  A
C3450      C3451   1.397       .  A
C3450      H3455   1.085   1_565  S
C3451      C3452   1.404       .  A
C3451      C3458   1.444   1_565  S
C3452      C3453   1.402       .  A
C3453      C3454   1.395       .  A
C3453      H3456   1.086       .  S
C3454      C3457   1.444       .  S
C3457      N3459   1.157   1_554  T
C3458      N3460   1.157       .  T
C3461      C3462   1.395       .  A
C3461      C3466   1.406       .  A
C3462      C3463   1.383       .  A
C3462      H3467   1.086       .  S
C3463      C3464   1.406       .  A
C3463      C3470   1.443       .  S
C3464      C3465   1.399       .  A
C3465      C3466   1.394       .  A
C3465      H3468   1.082       .  S
C3466      C3469   1.444       .  S
C3469      N3471   1.157       .  T
C3470      N3472   1.157       .  T
C3473      C3474   1.415   1_565  A
C3474      C3475   1.405       .  A
C3474      H3479   1.085       .  S
C3476      C3477   1.413       .  A
C3477      C3478   1.407       .  A
C3477      H3480   1.085   1_655  S
C3478      C3481   1.444       .  S
C3481      N3483   1.157       .  T
C3482      N3484   1.157       .  T
C3485      C3486   1.404       .  A
C3485      C3490   1.407       .  A
C3486      C3487   1.405       .  A
C3486      H3491   1.087       .  S
C3487      C3488   1.417       .  A
C3487      C3494   1.444       .  S
C3488      C3489   1.415       .  A
C3489      C3490   1.412       .  A
C3489      H3492   1.086       .  S
C3490      C3493   1.442       .  S
C3493      N3495   1.157       .  T
C3494      N3496   1.157       .  T
C3497      C3498   1.414       .  A
C3497      C3502   1.422       .  A
C3498      C3499   1.420       .  A
C3498      H3503   1.084       .  S
C3499      C3500   1.421       .  A
C3499      C3506   1.443       .  S
C3500      C3501   1.410       .  A
C3501      C3502   1.413       .  A
C3501      H3504   1.084       .  S
C3502      C3505   1.443       .  S
C3505      N3507   1.157       .  T
C3506      N3508   1.157       .  T
C3509      C3510   1.397       .  A
C3509      C3514   1.412       .  A
C3510      C3511   1.398       .  A
C3510      H3515   1.085       .  S
C3511      C3512   1.421       .  A
C3511      C3518   1.445       .  S
C3512      C3513   1.401       .  A
C3513      C3514   1.395       .  A
C3513      H3516   1.085       .  S
C3514      C3517   1.442       .  S
C3517      N3519   1.156       .  T
C3518      N3520   1.157       .  T
C3521      C3526   1.419       .  A
C3522      C3523   1.397       .  A
C3522      H3527   1.084       .  S
C3523      C3530   1.444       .  S
C3524      C3525   1.397       .  A
C3525      C3526   1.395       .  A
C3525      H3528   1.086       .  S
C3526      C3529   1.444       .  S
C3529      N3531   1.157       .  T
C3530      N3532   1.157   1_545  T
C3533      C3534   1.413       .  A
C3533      C3538   1.423       .  A
C3534      C3535   1.418       .  A
C3534      H3539   1.084       .  S
C3535      C3536   1.421       .  A
C3535      C3542   1.442       .  S
C3536      C3537   1.413       .  A
C3537      C3538   1.418       .  A
C3537      H3540   1.085       .  S
C3538      C3541   1.444       .  S
C3541      N3543   1.158       .  T
C3542      N3544   1.157       .  T
C3545      C3546   1.405       .  A
C3545      C3550   1.407       .  A
C3546      C3547   1.394       .  A
C3546      H3551   1.084       .  S
C3547      C3548   1.409       .  A
C3547      C3554   1.445       .  S
C3548      C3549   1.408       .  A
C3549      C3550   1.399       .  A
C3549      H3552   1.084       .  S
C3550      C3553   1.444       .  S
C3553      N3555   1.157       .  T
C3554      N3556   1.157       .  T
C3557      C3558   1.406       .  A
C3557      C3562   1.410       .  A
C3558      C3559   1.394       .  A
C3558      H3563   1.084       .  S
C3559      C3560   1.406       .  A
C3559      C3566   1.444       .  S
C3560      C3561   1.403       .  A
C3561      C3562   1.395       .  A
C3561      H3564   1.085       .  S
C3562      C3565   1.442       .  S
C3565      N3567   1.156       .  T
C3566      N3568   1.157       .  T
C3569      C3570   1.403       .  A
C3569      C3574   1.405       .  A
C3570      C3571   1.390       .  A
C3570      H3575   1.086       .  S
C3571      C3572   1.401       .  A
C3571      C3578   1.443       .  S
C3572      C3573   1.396       .  A
C3573      C3574   1.379       .  A
C3573      H3576   1.085       .  S
C3574      C3577   1.446       .  S
C3577      N3579   1.157       .  T
C3578      N3580   1.157       .  T
C3581      C3586   1.423   1_655  A
C3582      C3583   1.416       .  A
C3582      H3587   1.083       .  S
C3583      C3584   1.426       .  A
C3583      C3590   1.444       .  S
C3584      C3585   1.409       .  A
C3585      H3588   1.083       .  S
C3586      C3589   1.443       .  S
C3589      N3591   1.157       .  T
C3590      N3592   1.157       .  T
C3593      C3594   1.403       .  A
C3593      C3598   1.411       .  A
C3594      C3595   1.394       .  A
C3594      H3599   1.085       .  S
C3595      C3596   1.408       .  A
C3595      C3602   1.445       .  S
C3596      C3597   1.404       .  A
C3597      C3598   1.394       .  A
C3597      H3600   1.085       .  S
C3598      C3601   1.445       .  S
C3601      N3603   1.157       .  T
C3602      N3604   1.157       .  T
C3605      C3606   1.403       .  A
C3605      C3610   1.409       .  A
C3606      C3607   1.398       .  A
C3606      H3611   1.086       .  S
C3607      C3608   1.412       .  A
C3607      C3614   1.444       .  S
C3608      C3609   1.401       .  A
C3609      C3610   1.398       .  A
C3609      H3612   1.086       .  S
C3610      C3613   1.442       .  S
C3613      N3615   1.156       .  T
C3614      N3616   1.157   1_655  T
C3617      C3618   1.413       .  A
C3617      C3622   1.415       .  A
C3618      C3619   1.407       .  A
C3618      H3623   1.085       .  S
C3619      C3620   1.407       .  A
C3619      C3626   1.441       .  S
C3620      C3621   1.407       .  A
C3621      C3622   1.408       .  A
C3621      H3624   1.083       .  S
C3622      C3625   1.444       .  S
C3625      N3627   1.157       .  T
C3626      N3628   1.157       .  T
C3629      C3630   1.412       .  A
C3629      C3634   1.414       .  A
C3630      C3631   1.405       .  A
C3630      H3635   1.085       .  S
C3631      C3632   1.408       .  A
C3631      C3638   1.444       .  S
C3632      C3633   1.406       .  A
C3633      C3634   1.404       .  A
C3633      H3636   1.085       .  S
C3634      C3637   1.443       .  S
C3637      N3639   1.157       .  T
C3638      N3640   1.157       .  T
C3641      C3642   1.410       .  A
C3642      C3643   1.413       .  A
C3642      H3647   1.084       .  S
C3643      C3650   1.444       .  S
C3644      C3645   1.408   1_655  A
C3646      C3649   1.444       .  S
C3649      N3651   1.158       .  T
C3650      N3652   1.157       .  T
C3653      C3654   1.405       .  A
C3654      C3655   1.399       .  A
C3654      H3659   1.085       .  S
C3655      C3656   1.409       .  A
C3655      C3662   1.444       .  S
C3657      C3658   1.396       .  A
C3657      H3660   1.086       .  S
C3658      C3661   1.445       .  S
C3661      N3663   1.157       .  T
C3662      N3664   1.157       .  T
C3665      C3666   1.406       .  A
C3665      C3670   1.409       .  A
C3666      C3667   1.398       .  A
C3667      C3668   1.406       .  A
C3668      C3669   1.407       .  A
C3669      C3670   1.403       .  A
C3669      H3672   1.085       .  S
C3670      C3673   1.444       .  S
C3673      N3675   1.157       .  T
C3674      N3676   1.157       .  T
C3677      C3678   1.396       .  A
C3677      C3682   1.407       .  A
C3678      H3683   1.084       .  S
C3679      C3680   1.408       .  A
C3679      C3686   1.441       .  S
C3681      C3682   1.390       .  A
C3681      H3684   1.086       .  S
C3682      C3685   1.440       .  S
C3685      N3687   1.155       .  T
C3686      N3688   1.156       .  T
C3689      C3690   1.404   1_565  A
C3689      C3694   1.429   1_565  A
C3690      H3695   1.085       .  S
C3691      C3692   1.422       .  A
C3691      C3698   1.444       .  S
C3692      C3693   1.401       .  A
C3693      H3696   1.086       .  S
C3694      C3697   1.444   1_545  S
C3697      N3699   1.157       .  T
C3698      N3700   1.157       .  T
C3701      C3702   1.413       .  A
C3701      C3706   1.409       .  A
C3702      C3703   1.404       .  A
C3702      H3707   1.084       .  S
C3703      C3704   1.408       .  A
C3703      C3710   1.444       .  S
C3704      C3705   1.410       .  A
C3705      C3706   1.401       .  A
C3705      H3708   1.084       .  S
C3706      C3709   1.444       .  S
C3709      N3711   1.157       .  T
C3710      N3712   1.157       .  T
