geometry optimzed in LAMMPS
_audit_creation_date              2020-11-30 
_audit_creation_method            'lammps2cif' 
_symmetry_space_group_name_H-M    'P1' 
_symmetry_Int_Tables_number       1 
_symmetry_cell_setting            triclinic 
loop_ 
_symmetry_equiv_pos_as_xyz 
  x,y,z 
_cell_length_a                    45.058758997634904 
_cell_length_b                    45.232931942566 
_cell_length_c                    27.059550498236153 
_cell_angle_alpha                 90.70164046046372 
_cell_angle_beta                  91.63910898117601 
_cell_angle_gamma                 87.02001757502593 
loop_ 
_atom_site_label 
_atom_site_type_symbol 
_atom_site_fract_x 
_atom_site_fract_y 
_atom_site_fract_z 
_atom_site_charge 
O1          O  0.68215369  0.59327979  0.37800998    -0.80360
O2          O  0.56556622  0.60877572  0.33740407    -0.65050
O3          O  0.63375931  0.60737375  0.41683462    -1.11650
C4          C  0.61239301  0.51279038  0.46066037     1.06530
O5          O  0.54323871  0.59624413  0.40617473    -0.78260
O6          O  0.58272611  0.59095615  0.48774258    -0.65840
Ni7        Ni  0.66378206  0.63010452  0.39723941     1.34870
C8          C  0.60820334  0.58810849  0.50975033     0.85260
O9          O  0.60096730  0.65236288  0.36857705    -0.78800
O10         O  0.64086042  0.66511588  0.41465589    -0.89070
C11         C  0.54232536  0.60748581  0.36260691     0.84840
O12         O  0.64857565  0.63805644  0.33255015    -0.67270
O13         O  0.58880585  0.52957666  0.46623646    -0.86560
C14         C  0.64794773  0.61618787  0.30538775     0.85670
C15         C  0.61606545  0.67197514  0.39203699     1.07240
H16         H  0.59678071  0.55565582  0.36348966     0.39040
O17         O  0.59855817  0.56834714  0.39230272    -1.09220
O18         O  0.62793000  0.57044086  0.49176379    -0.65870
Ni19       Ni  0.63665600  0.56428331  0.42258702     1.26350
O20         O  0.62723168  0.59870637  0.31549803    -0.66100
O21         O  0.63393056  0.52187374  0.43516400    -0.78390
C22         C  0.69360454  0.57737622  0.41167920     0.85050
O23         O  0.67775877  0.56277713  0.43982320    -0.65570
Ni24       Ni  0.56774230  0.56397056  0.43659409     1.27450
Ni25       Ni  0.60095505  0.60909914  0.37502006     1.26060
H26         H  0.62779328  0.61701947  0.44695633     0.39590
O27         O  0.79515571  0.59375170  0.51939002    -0.80360
O28         O  0.91573630  0.60011288  0.60599387    -0.65050
O29         O  0.85090886  0.60068229  0.51595095    -1.11650
C30         C  0.87181316  0.49973139  0.50076385     1.06530
O31         O  0.94200500  0.57608702  0.54750212    -0.78260
O32         O  0.91036060  0.56962206  0.46132715    -0.65840
Ni33       Ni  0.81755843  0.62722236  0.52194119     1.34870
C34         C  0.88670685  0.56895171  0.43481232     0.85260
O35         O  0.88041073  0.64406953  0.56999343    -0.78800
O36         O  0.84085370  0.66100855  0.52511073    -0.89070
C37         C  0.94022958  0.59344019  0.58531625     0.84840
O38         O  0.81582641  0.62747307  0.59164955    -0.67270
O39         O  0.89715180  0.51063842  0.49274810    -0.86560
C40         C  0.82892359  0.61139278  0.62433651     0.85670
C41         C  0.86459137  0.66518091  0.55024955     1.07240
H42         H  0.88267378  0.54962970  0.58541957     0.39040
O43         O  0.88412341  0.55969568  0.55434557    -1.09220
O44         O  0.86469161  0.55616023  0.45065009    -0.65870
Ni45       Ni  0.84880914  0.55759258  0.51627031     1.26350
O46         O  0.85457851  0.59811217  0.61830922    -0.66100
O47         O  0.85033591  0.51561988  0.51802418    -0.78390
C48         C  0.79685180  0.57908708  0.47956100     0.85050
O49         O  0.81357712  0.55630694  0.47853384    -0.65570
Ni50       Ni  0.91802679  0.54506977  0.51979599     1.27450
Ni51       Ni  0.88188357  0.60167468  0.56322104     1.26060
H52         H  0.85904346  0.60658997  0.48553046     0.39590
O53         O  0.84747228  0.53367298  0.11043973    -0.80360
O54         O  0.84808999  0.66298721  0.08118912    -0.65050
O55         O  0.85667001  0.58961602  0.14605029    -1.11650
C56         C  0.76105937  0.60944211  0.19791076     1.06530
O57         O  0.83527474  0.68147679  0.15504337    -0.78260
O58         O  0.83581316  0.64006072  0.23076704    -0.65840
Ni59       Ni  0.88078591  0.55804420  0.12212890     1.34870
C60         C  0.83724484  0.61376695  0.24781373     0.85260
O61         O  0.89586490  0.62319288  0.09394760    -0.78800
O62         O  0.91421354  0.58198650  0.13214950    -0.89070
C63         C  0.84141991  0.68508631  0.10950851     0.84840
O64         O  0.87952377  0.56978430  0.05521377    -0.67270
O65         O  0.77430433  0.63350157  0.20799848    -0.86560
C66         C  0.85622557  0.57987711  0.03334287     0.85670
C67         C  0.91779628  0.60676411  0.11140934     1.07240
H68         H  0.79993072  0.62942873  0.10529718     0.39040
O69         O  0.81389868  0.62685366  0.13287847    -1.09220
O70         O  0.82287819  0.59383971  0.22585506    -0.65870
Ni71       Ni  0.81467978  0.58775465  0.15580009     1.26350
O72         O  0.84173580  0.60288796  0.05058779    -0.66100
O73         O  0.77253272  0.58950692  0.16916950    -0.78390
C74         C  0.82922071  0.52783938  0.14350010     0.85050
O75         O  0.81710036  0.54762083  0.17086710    -0.65570
Ni76       Ni  0.80625305  0.65590728  0.18189769     1.27450
Ni77       Ni  0.85399841  0.62501517  0.11115419     1.26060
H78         H  0.86659322  0.59476030  0.17662702     0.39590
O79         O  0.83822470  0.43468031  0.31084590    -0.80360
O80         O  0.86249286  0.30992944  0.36270638    -0.65050
O81         O  0.85155255  0.37866563  0.28665614    -1.11650
C82         C  0.75549811  0.35288195  0.26260633     1.06530
O83         O  0.84502953  0.28688882  0.29570582    -0.78260
O84         O  0.82899925  0.32344403  0.21710634    -0.65840
Ni85       Ni  0.87376774  0.41175668  0.29853570     1.34870
C86         C  0.82306284  0.34839344  0.19656533     0.85260
O87         O  0.90081125  0.34874879  0.33155380    -0.78800
O88         O  0.90937796  0.38848444  0.28668091    -0.89070
C89         C  0.85796584  0.28622859  0.33847386     0.84840
O90         O  0.88069600  0.40650895  0.36709906    -0.67270
O91         O  0.77088643  0.32852285  0.25578914    -0.86560
C92         C  0.86516243  0.39356443  0.39742126     0.85670
C93         C  0.91833404  0.36477472  0.30871404     1.07240
H94         H  0.80726374  0.34004985  0.34852043     0.39040
O95         O  0.81696337  0.34152413  0.31730815    -1.09220
O96         O  0.80864462  0.36858591  0.21961224    -0.65870
Ni97       Ni  0.80861948  0.37895484  0.28862848     1.26350
O98         O  0.85232044  0.36954254  0.38642280    -0.66100
O99         O  0.76633820  0.37471516  0.28625946    -0.78390
C100        C  0.81954604  0.43778868  0.27526456     0.85050
O101        O  0.80254805  0.41736144  0.26380960    -0.65570
Ni102      Ni  0.80884872  0.30927748  0.27519156     1.27450
Ni103      Ni  0.85850408  0.34546157  0.32630749     1.26060
H104        H  0.85803155  0.37241892  0.25443571     0.39590
O105        O  0.79309805  0.38333036  0.85747023    -0.80360
O106        O  0.91773405  0.36639484  0.85417863    -0.65050
O107        O  0.84306748  0.37063337  0.90965018    -1.11650
C108        C  0.85966081  0.46850724  0.94338267     1.06530
O109        O  0.93612506  0.38636383  0.92402892    -0.78260
O110        O  0.89114321  0.39462372  0.99438842    -0.65840
Ni111      Ni  0.81315357  0.34820070  0.88254694     1.34870
C112        C  0.86426513  0.39687678  0.00856118     0.85260
O113        O  0.87834901  0.32462708  0.87052434    -0.78800
O114        O  0.83532197  0.31333324  0.90413218    -0.89070
C115        C  0.93972585  0.37219838  0.88264134     0.84840
O116        O  0.82885881  0.34037571  0.81959189    -0.67270
O117        O  0.88333238  0.45503623  0.96205881    -0.86560
C118        C  0.83868400  0.36067838  0.79475023     0.85670
C119        C  0.86080533  0.30565709  0.88681745     1.07240
H120        H  0.88376924  0.41957488  0.86352207     0.39040
O121        O  0.88051240  0.40872777  0.89327444    -1.09220
O122        O  0.84498164  0.41137451  0.98203949    -0.65870
Ni123      Ni  0.84058420  0.41305979  0.91050063     1.26350
O124        O  0.85974849  0.37584502  0.81356082    -0.66100
O125        O  0.84134854  0.45528338  0.91496031    -0.78390
C126        C  0.78298706  0.40376449  0.88546281     0.85050
O127        O  0.79943298  0.41553141  0.91816196    -0.65570
Ni128      Ni  0.90789531  0.41904259  0.94367814     1.27450
Ni129      Ni  0.87942978  0.36727346  0.87964508     1.26060
H130        H  0.84619823  0.36304986  0.94257119     0.39590
O131        O  0.68317422  0.37284085  0.99860299    -0.80360
O132        O  0.56085735  0.37581475  0.10780441    -0.65050
O133        O  0.62807939  0.37409973  0.02690526    -1.11650
C134        C  0.60434084  0.47296416  0.00204528     1.06530
O135        O  0.53953100  0.39120690  0.03710328    -0.78260
O136        O  0.57502403  0.40046718  0.95798408    -0.65840
Ni137      Ni  0.66246389  0.35230552  0.04475355     1.34870
C138        C  0.60015313  0.40432491  0.93930551     0.85260
O139        O  0.59641987  0.33089297  0.07355164    -0.78800
O140        O  0.64417911  0.32667656  0.08993748    -0.89070
C141        C  0.53750773  0.38311444  0.08201446     0.84840
O142        O  0.66417415  0.38422397  0.08978587    -0.67270
O143        O  0.57971386  0.46023645  0.99332285    -0.86560
C144        C  0.65255362  0.37946536  0.13016326     0.85670
C145        C  0.61934849  0.31516647  0.08569728     1.07240
H146        H  0.59172059  0.42592563  0.09064903     0.39040
O147        O  0.59300132  0.41482330  0.05997029    -1.09220
O148        O  0.61835956  0.41879983  0.96372597    -0.65870
Ni149      Ni  0.62977193  0.41761044  0.03094899     1.26350
O150        O  0.62399779  0.37577759  0.13075904    -0.66100
O151        O  0.62539382  0.46056899  0.02900700    -0.78390
C152        C  0.68403864  0.39949435  0.98610148     0.85050
O153        O  0.66787887  0.42013474  0.00458190    -0.65570
Ni154      Ni  0.56081982  0.42462254  0.01504303     1.27450
Ni155      Ni  0.59591821  0.37332615  0.07018002     1.26060
H156        H  0.62171043  0.36637941  0.99526073     0.39590
O157        O  0.64056032  0.54299824  0.74674555    -0.80360
O158        O  0.62543995  0.65505340  0.86347139    -0.65050
O159        O  0.62657930  0.59988735  0.75706970    -1.11650
C160        C  0.72469289  0.62187886  0.73887954     1.06530
O161        O  0.64466979  0.68559525  0.80911906    -0.78260
O162        O  0.64964636  0.66439829  0.71637902    -0.65840
Ni163      Ni  0.60479536  0.56612470  0.75426258     1.34870
C164        C  0.65152704  0.64355543  0.68480202     0.85260
O165        O  0.58175821  0.62059644  0.82338083    -0.78800
O166        O  0.56830835  0.58867008  0.76335944    -0.89070
C167        C  0.63173737  0.68094292  0.84953640     0.84840
O168        O  0.60728717  0.55842346  0.82244507    -0.67270
O169        O  0.71166046  0.64792494  0.74011591    -0.86560
C170        C  0.62276906  0.56659385  0.85941599     0.85670
C171        C  0.56204342  0.60591480  0.79958569     1.07240
H172        H  0.67826830  0.62373742  0.83022139     0.39040
O173        O  0.66621082  0.62849468  0.80099985    -1.09220
O174        O  0.66693847  0.62038172  0.69479496    -0.65870
Ni175      Ni  0.66961740  0.59777922  0.75371462     1.26350
O176        O  0.63392145  0.59234784  0.86089197    -0.66100
O177        O  0.71172859  0.59906709  0.75244620    -0.78390
C178        C  0.65565017  0.54592462  0.70872594     0.85050
O179        O  0.67169988  0.56739226  0.70566148    -0.65570
Ni180      Ni  0.67645292  0.66533037  0.77446731     1.27450
Ni181      Ni  0.62446776  0.62499246  0.81304647     1.26060
H182        H  0.61812006  0.61140711  0.73007448     0.39590
O183        O  0.62676350  0.43138286  0.72557272    -0.80360
O184        O  0.62484492  0.31428333  0.60259213    -0.65050
O185        O  0.62583933  0.37963465  0.68856256    -1.11650
C186        C  0.72885465  0.36122122  0.69222265     1.06530
O187        O  0.64899653  0.29107064  0.66558622    -0.78260
O188        O  0.65934818  0.32705058  0.74627737    -0.65840
Ni189      Ni  0.59721220  0.41129172  0.69108328     1.34870
C190        C  0.66209472  0.35228489  0.76664019     0.85260
O191        O  0.58122649  0.34704153  0.63942569    -0.78800
O192        O  0.56456360  0.39237197  0.66058495    -0.89070
C193        C  0.63099650  0.29087931  0.62777976     0.84840
O194        O  0.61010137  0.42167983  0.62798716    -0.67270
O195        O  0.71796939  0.33662308  0.70534827    -0.86560
C196        C  0.61662453  0.40742963  0.58851563     0.85670
C197        C  0.56039900  0.36648534  0.64483586     1.07240
H198        H  0.67481854  0.34722689  0.61554278     0.39040
O199        O  0.66604178  0.34732144  0.64772703    -1.09220
O200        O  0.67755784  0.36993224  0.74480581    -0.65870
Ni201      Ni  0.66939530  0.38367880  0.67945468     1.26350
O202        O  0.62216488  0.37865551  0.58701650    -0.66100
O203        O  0.71211328  0.38207580  0.67268215    -0.78390
C204        C  0.64876192  0.43907254  0.70267733     0.85050
O205        O  0.67193135  0.42256345  0.70445693    -0.65570
Ni206      Ni  0.68172008  0.31531749  0.68670297     1.27450
Ni207      Ni  0.62364960  0.34878996  0.64243254     1.26060
H208        H  0.62128348  0.37006981  0.71852992     0.39590
O209        O  0.63675331  0.18398886  0.16347245    -0.80360
O210        O  0.68166802  0.05949924  0.18962356    -0.65050
O211        O  0.66621026  0.13392865  0.14002046    -1.11650
C212        C  0.56641755  0.11015522  0.11628984     1.06530
O213        O  0.63704646  0.04248964  0.19924185    -0.78260
O214        O  0.63814141  0.06335084  0.10881630    -0.65840
Ni215      Ni  0.67373745  0.16471142  0.18615113     1.34870
C216        C  0.62990743  0.07440298  0.06847463     0.85260
O217        O  0.71484429  0.10136844  0.17333252    -0.78800
O218        O  0.71230005  0.14599549  0.21004180    -0.89070
C219        C  0.66504241  0.04105613  0.20524203     0.84840
O220        O  0.65115120  0.15086006  0.24085509    -0.67270
O221        O  0.57742179  0.08382351  0.11829351    -0.86560
C222        C  0.65355969  0.12545525  0.26033858     0.85670
C223        C  0.72699676  0.12170747  0.19851394     1.07240
H224        H  0.62044936  0.10822169  0.19782091     0.39040
O225        O  0.62909783  0.09923431  0.16935937    -1.09220
O226        O  0.62617117  0.10322042  0.06582123    -0.65870
Ni227      Ni  0.62461292  0.13145866  0.12600167     1.26350
O228        O  0.66952570  0.10525303  0.23991669    -0.66100
O229        O  0.58226675  0.13223901  0.12140518    -0.78390
C230        C  0.62974120  0.18904146  0.11823207     0.85050
O231        O  0.62392257  0.16735977  0.08928058    -0.65570
Ni232      Ni  0.60966845  0.06470943  0.15784128     1.27450
Ni233      Ni  0.67279560  0.09759199  0.16929650     1.26060
H234        H  0.67738008  0.13542845  0.11026656     0.39590
O235        O  0.63246877  0.79137951  0.29679690    -0.80360
O236        O  0.65034542  0.92108516  0.24831024    -0.65050
O237        O  0.65281699  0.84734918  0.30494039    -1.11650
C238        C  0.55625374  0.87557474  0.35335884     1.06530
O239        O  0.60398829  0.94051412  0.25597461    -0.78260
O240        O  0.62132775  0.92352677  0.34802855    -0.65840
Ni241      Ni  0.65986286  0.81465469  0.26139624     1.34870
C242        C  0.62765986  0.90759253  0.38543153     0.85260
O243        O  0.69288832  0.87985828  0.25710645    -0.78800
O244        O  0.69013554  0.83444521  0.22451280    -0.89070
C245        C  0.63080039  0.94172463  0.24422129     0.84840
O246        O  0.62816995  0.82571685  0.21337921    -0.67270
O247        O  0.56916270  0.89938791  0.35871754    -0.86560
C248        C  0.62552404  0.85026130  0.19060396     0.85670
C249        C  0.70352873  0.85877163  0.22996966     1.07240
H250        H  0.59775540  0.87567545  0.25819662     0.39040
O251        O  0.60903881  0.88338681  0.28520869    -1.09220
O252        O  0.62412221  0.87895658  0.38495642    -0.65870
Ni253      Ni  0.61323432  0.85126613  0.32790597     1.26350
O254        O  0.64017507  0.87198201  0.20557636    -0.66100
O255        O  0.57172870  0.85247315  0.34263480    -0.78390
C256        C  0.62200070  0.79231337  0.34048270     0.85050
O257        O  0.61905078  0.81635997  0.36544488    -0.65570
Ni258      Ni  0.58804192  0.91808810  0.30652588     1.27450
Ni259      Ni  0.65115186  0.88342083  0.27258278     1.26060
H260        H  0.66723426  0.84718620  0.33209347     0.39590
O261        O  0.94447624  0.07890552  0.41087989    -0.80360
O262        O  0.81350076  0.05636980  0.44034738    -0.65050
O263        O  0.88905611  0.05945368  0.38922506    -1.11650
C264        C  0.86675838  0.16466862  0.39300630     1.06530
O265        O  0.79612071  0.09286549  0.39261981    -0.78260
O266        O  0.82477848  0.13031203  0.33677343    -0.65840
Ni267      Ni  0.92080838  0.04686332  0.43282419     1.34870
C268        C  0.83641731  0.11174124  0.30710437     0.85260
O269        O  0.85460102  0.01423932  0.41784293    -0.78800
O270        O  0.90002471  0.01157119  0.45423293    -0.89070
C271        C  0.79300699  0.07467953  0.42697220     0.84840
O272        O  0.90844349  0.07158280  0.48925586    -0.67270
O273        O  0.84350660  0.15907507  0.41623532    -0.86560
C274        C  0.88320497  0.07012860  0.50856077     0.85670
C275        C  0.87556414  0.99946487  0.44106201     1.07240
H276        H  0.85915070  0.10647113  0.45062595     0.39040
O277        O  0.85263530  0.09989408  0.41835229    -1.09220
O278        O  0.86053419  0.09631520  0.31853023    -0.65870
Ni279      Ni  0.88578175  0.10148574  0.37917883     1.26350
O280        O  0.86268947  0.05730595  0.48537911    -0.66100
O281        O  0.88304127  0.14423440  0.37241125    -0.78390
C282        C  0.94521922  0.09070102  0.36801955     0.85050
O283        O  0.92165383  0.09966685  0.34421362    -0.65570
Ni284      Ni  0.81969015  0.12584064  0.40520592     1.27450
Ni285      Ni  0.85166854  0.05695198  0.41652727     1.26060
H286        H  0.89008974  0.04875360  0.35813086     0.39590
O287        O  0.54206865  0.09124460  0.54035596    -0.80360
O288        O  0.67642991  0.07271855  0.52212435    -0.65050
O289        O  0.59875805  0.06964830  0.56373876    -1.11650
C290        C  0.60809303  0.17367064  0.58472686     1.06530
O291        O  0.68930054  0.10492884  0.58063565    -0.78260
O292        O  0.65148094  0.13685107  0.64013402    -0.65840
Ni293      Ni  0.56961133  0.06038323  0.51518194     1.34870
C294        C  0.64326633  0.11454180  0.66266599     0.85260
O295        O  0.63948118  0.02781810  0.52624658    -0.78800
O296        O  0.59414205  0.02652982  0.48948945    -0.89070
C297        C  0.69578096  0.08634328  0.54660667     0.84840
O298        O  0.58177127  0.08755006  0.46485345    -0.67270
O299        O  0.63281045  0.16983900  0.56348889    -0.86560
C300        C  0.60788983  0.08913899  0.44851886     0.85670
C301        C  0.61984105  0.01416194  0.50067697     1.07240
H302        H  0.62411193  0.12078973  0.51975537     0.39040
O303        O  0.63135506  0.11198803  0.55005458    -1.09220
O304        O  0.62111325  0.09998828  0.64586936    -0.65870
Ni305      Ni  0.59683109  0.11026141  0.58522659     1.26350
O306        O  0.62994203  0.07676090  0.47092272    -0.66100
O307        O  0.59426357  0.15227954  0.60249715    -0.78390
C308        C  0.53808711  0.10200898  0.58400478     0.85050
O309        O  0.55977415  0.10584900  0.61444735    -0.65570
Ni310      Ni  0.66069364  0.13716928  0.57188890     1.27450
Ni311      Ni  0.63736886  0.07008963  0.53997166     1.26060
H312        H  0.59819774  0.05648067  0.59152092     0.39590
O313        O  0.92541108  0.87840886  0.05436139    -0.80360
O314        O  0.81631788  0.92124031  0.94425291    -0.65050
O315        O  0.87119468  0.90749521  0.04836504    -1.11650
C316        C  0.83797268  0.80964478  0.04904131     1.06530
O317        O  0.78095845  0.89329955  0.96682436    -0.78260
O318        O  0.79543361  0.88193401  0.05583260    -0.65840
Ni319      Ni  0.91050530  0.91540731  0.02697778     1.34870
C320        C  0.80469285  0.87408885  0.09782378     0.85260
O321        O  0.84798969  0.95627827  0.99878907    -0.78800
O322        O  0.89756094  0.95422781  0.99658808    -0.89070
C323        C  0.78969990  0.91723644  0.94944909     0.84840
O324        O  0.91016865  0.89236450  0.96630459    -0.67270
O325        O  0.81395722  0.82183390  0.03026807    -0.86560
C326        C  0.89007766  0.89526627  0.93334990     0.85670
C327        C  0.87214591  0.96865378  0.99124218     1.07240
H328        H  0.84880342  0.86300950  0.96872965     0.39040
O329        O  0.83950598  0.87223809  0.99695324    -1.09220
O330        O  0.83295922  0.86945939  0.10544876    -0.65870
Ni331      Ni  0.86536760  0.86590209  0.05522320     1.26350
O332        O  0.86755153  0.91179304  0.94084943    -0.66100
O333        O  0.86109778  0.82414030  0.05730027    -0.78390
C334        C  0.92094436  0.86976981  0.09773490     0.85050
O335        O  0.89488060  0.86284660  0.10905169    -0.65570
Ni336      Ni  0.80022081  0.85888246  0.99799698     1.27450
Ni337      Ni  0.84305743  0.91471123  0.99667055     1.26060
H338        H  0.86599865  0.91856975  0.07792130     0.39590
O339        O  0.54989064  0.89203574  0.87880687    -0.80360
O340        O  0.67032238  0.90789413  0.98873282    -0.65050
O341        O  0.60865514  0.90579075  0.89206692    -1.11650
C342        C  0.63654062  0.80179110  0.89966349     1.06530
O343        O  0.70051417  0.88191732  0.94062282    -0.78260
O344        O  0.68463474  0.84791395  0.86295314    -0.65840
Ni345      Ni  0.57089824  0.92128839  0.91473335     1.34870
C346        C  0.66915909  0.85739771  0.82598223     0.85260
O347        O  0.63661077  0.95036344  0.94516537    -0.78800
O348        O  0.58753319  0.95441804  0.95157121    -0.89070
C349        C  0.69476409  0.90431133  0.96861405     0.84840
O350        O  0.57043259  0.89512960  0.97079424    -0.67270
O351        O  0.66033809  0.80882045  0.92310388    -0.86560
C352        C  0.59093142  0.89158600  0.00348500     0.85670
C353        C  0.61307928  0.96562656  0.95457812     1.07240
H354        H  0.63361351  0.85786840  0.96367169     0.39040
O355        O  0.64204367  0.86614426  0.93505909    -1.09220
O356        O  0.64174642  0.86685075  0.82928488    -0.65870
Ni357      Ni  0.61336881  0.86333900  0.88356576     1.26350
O358        O  0.61550119  0.90366570  0.99917704    -0.66100
O359        O  0.61826835  0.82105374  0.87991609    -0.78390
C360        C  0.55475092  0.87114495  0.84778675     0.85050
O361        O  0.58082388  0.86152884  0.83631976    -0.65570
Ni362      Ni  0.67955139  0.84580498  0.93228693     1.27450
Ni363      Ni  0.63934974  0.90794803  0.94150889     1.26060
H364        H  0.61397906  0.91586141  0.86255726     0.39590
O365        O  0.83986896  0.18463412  0.78496164    -0.80360
O366        O  0.80793928  0.05504208  0.75774236    -0.65050
O367        O  0.81763823  0.13127125  0.80606439    -1.11650
C368        C  0.92129902  0.10090811  0.80290261     1.06530
O369        O  0.84453489  0.03628506  0.80548866    -0.78260
O370        O  0.88597748  0.06472870  0.85960816    -0.65840
Ni371      Ni  0.80614036  0.16203122  0.76148063     1.34870
C372        C  0.86820428  0.07759021  0.88901857     0.85260
O373        O  0.76955215  0.09951968  0.77937646    -0.78800
O374        O  0.76899587  0.14283034  0.73957503    -0.89070
C375        C  0.82469957  0.03348595  0.77186808     0.84840
O376        O  0.82974519  0.14589987  0.70630426    -0.67270
O377        O  0.91257447  0.07909782  0.77725503    -0.86560
C378        C  0.82660912  0.12027549  0.68727962     0.85670
C379        C  0.75571215  0.11997970  0.75443890     1.07240
H380        H  0.86128184  0.09643713  0.74567782     0.39040
O381        O  0.85479766  0.09138564  0.77784981    -1.09220
O382        O  0.85373017  0.10202041  0.87735334    -0.65870
Ni383      Ni  0.85981319  0.12503722  0.81679098     1.26350
O384        O  0.81083493  0.10274947  0.70985405    -0.66100
O385        O  0.90294941  0.11891141  0.82498190    -0.78390
C386        C  0.85402505  0.18501976  0.82706613     0.85050
O387        O  0.86118169  0.16147366  0.85113594    -0.65570
Ni388      Ni  0.87864448  0.05748710  0.79126707     1.27450
Ni389      Ni  0.81190991  0.09364997  0.77971568     1.26060
H390        H  0.80758804  0.13404251  0.83699182     0.39590
O391        O  0.85596128  0.78703314  0.65249540    -0.80360
O392        O  0.81496296  0.91918518  0.67408615    -0.65050
O393        O  0.82679719  0.84042545  0.63277078    -1.11650
C394        C  0.92816569  0.86731823  0.63391582     1.06530
O395        O  0.84458783  0.92962816  0.61357808    -0.78260
O396        O  0.89081170  0.90109872  0.56977352    -0.65840
Ni397      Ni  0.82246819  0.81020657  0.67945249     1.34870
C398        C  0.87198277  0.89032217  0.54085838     0.85260
O399        O  0.77802386  0.87319417  0.66976522    -0.78800
O400        O  0.78686811  0.82985380  0.70780078    -0.89070
C401        C  0.82636114  0.93777329  0.64622880     0.84840
O402        O  0.84869656  0.82662714  0.72958591    -0.67270
O403        O  0.91913579  0.89196949  0.65383414    -0.86560
C404        C  0.84544913  0.85229260  0.74921407     0.85670
C405        C  0.76931338  0.85231767  0.69695091     1.07240
H406        H  0.87245714  0.87429167  0.68438390     0.39040
O407        O  0.86252605  0.87956397  0.65376612    -1.09220
O408        O  0.85755601  0.86797970  0.55478505    -0.65870
Ni409      Ni  0.86774577  0.84560518  0.61743355     1.26350
O410        O  0.82780037  0.87184825  0.72924906    -0.66100
O411        O  0.91024598  0.85008071  0.61110452    -0.78390
C412        C  0.86652288  0.78588159  0.60892029     0.85050
O413        O  0.87036681  0.80899488  0.58404028    -0.65570
Ni414      Ni  0.88215108  0.91226787  0.63516878     1.27450
Ni415      Ni  0.81991992  0.87863264  0.65905812     1.26060
H416        H  0.81470444  0.83745421  0.60322635     0.39590
O417        O  0.34259430  0.03328776  0.60974910    -0.80360
O418        O  0.34635505  0.16469404  0.58065028    -0.65050
O419        O  0.35058904  0.08976544  0.64182029    -1.11650
C420        C  0.25171250  0.11086765  0.67756167     1.06530
O421        O  0.33045382  0.18055332  0.65423616    -0.78260
O422        O  0.32297943  0.14056362  0.72628086    -0.65840
Ni423      Ni  0.37556643  0.05755902  0.62137998     1.34870
C424        C  0.32436500  0.11410043  0.74186003     0.85260
O425        O  0.39253339  0.12336034  0.59603858    -0.78800
O426        O  0.40893675  0.08103225  0.63276581    -0.89070
C427        C  0.33910613  0.18588466  0.61069460     0.84840
O428        O  0.37512329  0.06822139  0.55383086    -0.67270
O429        O  0.26319694  0.13521142  0.69149270    -0.86560
C430        C  0.35300911  0.08002362  0.53045438     0.85670
C431        C  0.41350035  0.10618264  0.61452032     1.07240
H432        H  0.29650946  0.13058232  0.59494128     0.39040
O433        O  0.30890821  0.12777951  0.62442420    -1.09220
O434        O  0.31339218  0.09351637  0.71637985    -0.65870
Ni435      Ni  0.30811673  0.08856823  0.64564560     1.26350
O436        O  0.33988359  0.10431156  0.54600649    -0.66100
O437        O  0.26595897  0.09097712  0.65248651    -0.78390
C438        C  0.32552252  0.02857792  0.64487881     0.85050
O439        O  0.30863785  0.04894422  0.66224420    -0.65570
Ni440      Ni  0.29797986  0.15666618  0.67249257     1.27450
Ni441      Ni  0.35006523  0.12568399  0.60835994     1.26060
H442        H  0.35872011  0.09507627  0.67363049     0.39590
O443        O  0.35854683  0.94798609  0.83212031    -0.80360
O444        O  0.37006547  0.81650148  0.86031428    -0.65050
O445        O  0.36703258  0.89107909  0.79899209    -1.11650
C446        C  0.26734309  0.87388003  0.76495641     1.06530
O447        O  0.35497050  0.80622736  0.78450825    -0.78260
O448        O  0.33542477  0.84177323  0.71330968    -0.65840
Ni449      Ni  0.39188181  0.92167853  0.81712409     1.34870
C450        C  0.33486012  0.86822977  0.69863997     0.85260
O451        O  0.41349584  0.85515915  0.84161962    -0.78800
O452        O  0.42562679  0.89611011  0.80228081    -0.89070
C453        C  0.36310615  0.79732738  0.82733603     0.84840
O454        O  0.39677061  0.91063637  0.88435908    -0.67270
O455        O  0.27940846  0.84810696  0.75512469    -0.86560
C456        C  0.37666510  0.90052818  0.90987704     0.85670
C457        C  0.43254422  0.87070299  0.82054169     1.07240
H458        H  0.31741341  0.85325853  0.84820370     0.39040
O459        O  0.32824259  0.85549798  0.81826942    -1.09220
O460        O  0.32671224  0.88952633  0.72649115    -0.65870
Ni461      Ni  0.32416109  0.89440960  0.79685594     1.26350
O462        O  0.36303044  0.87737036  0.89544522    -0.66100
O463        O  0.28118679  0.89385435  0.78916181    -0.78390
C464        C  0.33824076  0.95362116  0.79958429     0.85050
O465        O  0.32236551  0.93387664  0.78124610    -0.65570
Ni466      Ni  0.31744361  0.82693411  0.77090876     1.27450
Ni467      Ni  0.37032769  0.85535212  0.83253306     1.26060
H468        H  0.37366868  0.88530354  0.76667164     0.39590
O469        O  0.19420711  0.89114897  0.52647423    -0.80360
O470        O  0.07527328  0.87169545  0.61493923    -0.65050
O471        O  0.13646041  0.87946618  0.52444082    -1.11650
C472        C  0.10717474  0.97717931  0.50852218     1.06530
O473        O  0.04491608  0.89809375  0.56173664    -0.78260
O474        O  0.07164161  0.90481274  0.47398548    -0.65840
Ni475      Ni  0.17205661  0.85643070  0.52374823     1.34870
C476        C  0.09387121  0.90790523  0.44714823     0.85260
O477        O  0.11544902  0.83099398  0.57589934    -0.78800
O478        O  0.15068198  0.82106553  0.52028097    -0.89070
C479        C  0.04933921  0.87945707  0.59684864     0.84840
O480        O  0.17646126  0.85233104  0.59349561    -0.67270
O481        O  0.08221470  0.96479372  0.50214731    -0.86560
C482        C  0.16657387  0.86926617  0.62754255     0.85670
C483        C  0.13130695  0.81265934  0.54971833     1.07240
H484        H  0.10275636  0.92615010  0.59817790     0.39040
O485        O  0.10096736  0.91635624  0.56636658    -1.09220
O486        O  0.11560674  0.92200365  0.46366418    -0.65870
Ni487      Ni  0.13403487  0.92221361  0.52887991     1.26350
O488        O  0.13925715  0.88017967  0.62592176    -0.66100
O489        O  0.12871649  0.96411219  0.53207058    -0.78390
C490        C  0.19037605  0.91161857  0.49542313     0.85050
O491        O  0.16714945  0.92755248  0.49324959    -0.65570
Ni492      Ni  0.06518408  0.92969112  0.53237045     1.27450
Ni493      Ni  0.10831967  0.87404181  0.57238832     1.26060
H494        H  0.12705470  0.87306647  0.49415383     0.39590
O495        O  0.27893651  0.88113635  0.35275728    -0.80360
O496        O  0.40776338  0.87070004  0.33575760    -0.65050
O497        O  0.33375106  0.87208030  0.39670874    -1.11650
C498        C  0.35006183  0.97190289  0.42772868     1.06530
O499        O  0.42082678  0.88683731  0.41057657    -0.78260
O500        O  0.38357085  0.90373843  0.48157261    -0.65840
Ni501      Ni  0.30362599  0.84801869  0.37493786     1.34870
C502        C  0.35729671  0.90330774  0.49707179     0.85260
O503        O  0.36924874  0.82665185  0.35340344    -0.78800
O504        O  0.32873953  0.81470084  0.39395252    -0.89070
C505        C  0.42780812  0.87833572  0.36716001     0.84840
O506        O  0.31680852  0.84186586  0.30976518    -0.67270
O507        O  0.37592014  0.96015679  0.43928417    -0.86560
C508        C  0.32470736  0.86292653  0.28423958     0.85670
C509        C  0.35313219  0.80737272  0.37293675     1.07240
H510        H  0.37033212  0.92251563  0.34840410     0.39040
O511        O  0.36878838  0.91139275  0.37841398    -1.09220
O512        O  0.33495641  0.91150247  0.47026171    -0.65870
Ni513      Ni  0.32959671  0.91441726  0.39948678     1.26350
O514        O  0.34674624  0.87802286  0.29974440    -0.66100
O515        O  0.32944871  0.95718233  0.40655038    -0.78390
C516        C  0.27175711  0.90441930  0.37718526     0.85050
O517        O  0.28886762  0.91500297  0.41032006    -0.65570
Ni518      Ni  0.39795315  0.92288774  0.42463608     1.27450
Ni519      Ni  0.36924835  0.86968261  0.36340014     1.26060
H520        H  0.33939540  0.86490116  0.42912155     0.39590
O521        O  0.15348974  0.03434320  0.27264967    -0.80360
O522        O  0.11824858  0.15565971  0.34732345    -0.65050
O523        O  0.13380169  0.08833054  0.26718780    -1.11650
C524        C  0.23023967  0.11990237  0.25363206     1.06530
O525        O  0.14110486  0.18298928  0.29272649    -0.78260
O526        O  0.15265636  0.15097733  0.21082439    -0.65840
Ni527      Ni  0.11534249  0.05221001  0.27463069     1.34870
C528        C  0.15733145  0.12733402  0.18612374     0.85260
O529        O  0.08278308  0.11375275  0.31479580    -0.78800
O530        O  0.07645329  0.07043964  0.27661969    -0.89070
C531        C  0.12249657  0.18026976  0.32702491     0.84840
O532        O  0.11735633  0.05238038  0.34427254    -0.67270
O533        O  0.21407000  0.14358928  0.24394241    -0.86560
C534        C  0.12472316  0.07042176  0.37814840     0.85670
C535        C  0.06630324  0.09299293  0.30014906     1.07240
H536        H  0.17655817  0.12700087  0.33700705     0.39040
O537        O  0.16685899  0.12694081  0.30468868    -1.09220
O538        O  0.17435917  0.10659738  0.20341836    -0.65870
Ni539      Ni  0.17742873  0.09158712  0.27010718     1.26350
O540        O  0.13158120  0.09719018  0.37015835    -0.66100
O541        O  0.21906492  0.09792359  0.27360518    -0.78390
C542        C  0.16632920  0.03955672  0.23308341     0.85050
O543        O  0.18763472  0.05581664  0.23644203    -0.65570
Ni544      Ni  0.17604727  0.16128280  0.26899022     1.27450
Ni545      Ni  0.12487202  0.12051160  0.30978658     1.26060
H546        H  0.12621967  0.09461631  0.23524728     0.39590
O547        O  0.11704706  0.94069450  0.13569936    -0.80360
O548        O  0.10700160  0.81813393  0.09968031    -0.65050
O549        O  0.10971278  0.88877131  0.17388550    -1.11650
C550        C  0.21105135  0.86616626  0.18938557     1.06530
O551        O  0.12910320  0.79808704  0.16765352    -0.78260
O552        O  0.14074328  0.83729316  0.24413471    -0.65840
Ni553      Ni  0.08386710  0.92062426  0.15805489     1.34870
C554        C  0.14296355  0.86313949  0.26278018     0.85260
O555        O  0.06188506  0.85839441  0.12993299    -0.78800
O556        O  0.05111699  0.89862802  0.17751748    -0.89070
C557        C  0.11605934  0.79545577  0.12497319     0.84840
O558        O  0.07431090  0.90785236  0.09292772    -0.67270
O559        O  0.19918592  0.84254446  0.20438830    -0.86560
C560        C  0.09513240  0.90323344  0.06433936     0.85670
C561        C  0.04300756  0.87568662  0.15343024     1.07240
H562        H  0.15852659  0.84949649  0.11211259     0.39040
O563        O  0.14878747  0.85170917  0.14340860    -1.09220
O564        O  0.15650084  0.88184182  0.23896566    -0.65870
Ni565      Ni  0.15266650  0.88992864  0.16925302     1.26350
O566        O  0.11174255  0.87962120  0.07265917    -0.66100
O567        O  0.19547048  0.88680772  0.16723386    -0.78390
C568        C  0.13824734  0.94836006  0.16317113     0.85050
O569        O  0.15432644  0.92990160  0.18763522    -0.65570
Ni570      Ni  0.16267505  0.82170817  0.18705951     1.27450
Ni571      Ni  0.10627766  0.85510869  0.13396014     1.26060
H572        H  0.10410292  0.88343848  0.20647464     0.39590
O573        O  0.19303552  0.07770096  0.86759546    -0.80360
O574        O  0.06859911  0.11050432  0.82654468    -0.65050
O575        O  0.14067831  0.09980156  0.89797448    -1.11650
C576        C  0.10868726  0.00938880  0.94327091     1.06530
O577        O  0.04923996  0.10039248  0.89840076    -0.78260
O578        O  0.08616497  0.08804885  0.97651093    -0.65840
Ni579      Ni  0.17549517  0.11645832  0.87941949     1.34870
C580        C  0.11206204  0.08410649  0.99605896     0.85260
O581        O  0.11302561  0.14814482  0.85002825    -0.78800
O582        O  0.15683279  0.15480842  0.88980690    -0.89070
C583        C  0.04610129  0.10656761  0.85264952     0.84840
O584        O  0.16609622  0.12087025  0.81157438    -0.67270
O585        O  0.08571499  0.02705701  0.94983815    -0.86560
C586        C  0.15063955  0.10442809  0.78453111     0.85670
C587        C  0.13204105  0.16492247  0.87085817     1.07240
H588        H  0.09566300  0.05446542  0.84927739     0.39040
O589        O  0.09925350  0.06661773  0.87823902    -1.09220
O590        O  0.13106154  0.06651766  0.97565296    -0.65870
Ni591      Ni  0.13741561  0.05776710  0.90594302     1.26350
O592        O  0.12643065  0.09405983  0.79951717    -0.66100
O593        O  0.13036104  0.01669686  0.91734371    -0.78390
C594        C  0.19817438  0.06130986  0.90477708     0.85050
O595        O  0.17696682  0.05045403  0.92668085    -0.65570
Ni596      Ni  0.06847938  0.06435135  0.92385109     1.27450
Ni597      Ni  0.10607785  0.10668730  0.86067699     1.26060
H598        H  0.13575880  0.11003420  0.92809803     0.39590
O599        O  0.29022174  0.09768568  0.07473953    -0.80360
O600        O  0.41895670  0.11598185  0.09780333    -0.65050
O601        O  0.34382758  0.10858749  0.03702406    -1.11650
C602        C  0.37229510  0.01019225  0.01056452     1.06530
O603        O  0.43642244  0.09522854  0.02812810    -0.78260
O604        O  0.39505697  0.08129676  0.95623437    -0.65840
Ni605      Ni  0.31006772  0.13162782  0.05358914     1.34870
C606        C  0.36836105  0.07907596  0.94036465     0.85260
O607        O  0.37317911  0.15751933  0.07645281    -0.78800
O608        O  0.33005875  0.16550621  0.03390627    -0.89070
C609        C  0.44065772  0.10844754  0.06981770     0.84840
O610        O  0.32232950  0.13980951  0.11939780    -0.67270
O611        O  0.39500963  0.02328441  0.99537478    -0.86560
C612        C  0.33617346  0.12156650  0.14755149     0.85670
C613        C  0.35317121  0.17508570  0.05567379     1.07240
H614        H  0.39001467  0.06208752  0.09000821     0.39040
O615        O  0.38556294  0.07209477  0.05911283    -1.09220
O616        O  0.34943115  0.06742618  0.96677126    -0.65870
Ni617      Ni  0.34632965  0.06617334  0.03809562     1.26350
O618        O  0.36044929  0.10768710  0.13390892    -0.66100
O619        O  0.35211639  0.02383495  0.03560605    -0.78390
C620        C  0.28555676  0.07671912  0.04444552     0.85050
O621        O  0.30640321  0.06231707  0.02347978    -0.65570
Ni622      Ni  0.41418681  0.06047594  0.01201291     1.27450
Ni623      Ni  0.37975143  0.11419477  0.06988037     1.26060
H624        H  0.34807912  0.11499262  0.00452808     0.39590
O625        O  0.04079025  0.38634791  0.39580707    -0.80360
O626        O  0.17212771  0.39481667  0.44566426    -0.65050
O627        O  0.09799355  0.40283659  0.38540170    -1.11650
C628        C  0.10914842  0.29799815  0.37120771     1.06530
O629        O  0.19084144  0.35871328  0.39683096    -0.78260
O630        O  0.15847922  0.33133690  0.32688411    -0.65840
Ni631      Ni  0.06661261  0.41472987  0.42739687     1.34870
C632        C  0.14728134  0.35113455  0.29828907     0.85260
O633        O  0.13574564  0.44238609  0.42987088    -0.78800
O634        O  0.08957330  0.44641554  0.45863274    -0.89070
C635        C  0.19332737  0.37853157  0.43000525     0.84840
O636        O  0.07618858  0.38617384  0.48044776    -0.67270
O637        O  0.13344403  0.29955503  0.39589630    -0.86560
C638        C  0.10122389  0.38244778  0.50332636     0.85670
C639        C  0.11508279  0.45737726  0.45208295     1.07240
H640        H  0.12168793  0.35030271  0.43698412     0.39040
O641        O  0.13053334  0.35811044  0.40855960    -1.09220
O642        O  0.12415818  0.36772046  0.30952182    -0.65870
Ni643      Ni  0.09790710  0.36208947  0.36564617     1.26350
O644        O  0.12383859  0.39395959  0.48646052    -0.66100
O645        O  0.09606834  0.32038048  0.35018416    -0.78390
C646        C  0.03997921  0.37416145  0.35261445     0.85050
O647        O  0.06307236  0.36909757  0.32738810    -0.65570
Ni648      Ni  0.16136979  0.32982152  0.39653848     1.27450
Ni649      Ni  0.13482103  0.39976468  0.41845724     1.26060
H650        H  0.09850808  0.41566554  0.35716626     0.39590
O651        O  0.42920736  0.36910600  0.54206417    -0.80360
O652        O  0.31138010  0.43196672  0.51163619    -0.65050
O653        O  0.38604870  0.40810849  0.56349048    -1.11650
C654        C  0.34336708  0.31304197  0.57777043     1.06530
O655        O  0.29652101  0.40639532  0.57147028    -0.78260
O656        O  0.31209513  0.36122240  0.62892209    -0.65840
Ni657      Ni  0.41632448  0.40728852  0.51644170     1.34870
C658        C  0.32898628  0.37418830  0.65862612     0.85260
O659        O  0.35984751  0.45952941  0.52195971    -0.78800
O660        O  0.40324154  0.44647783  0.48890122    -0.89070
C661        C  0.29055045  0.42093624  0.53276316     0.84840
O662        O  0.39724154  0.38498459  0.46415801    -0.67270
O663        O  0.32063790  0.32514774  0.55464283    -0.86560
C664        C  0.37154619  0.38986241  0.44496756     0.85670
C665        C  0.38158284  0.46590319  0.49578720     1.07240
H666        H  0.34727116  0.36687245  0.51509762     0.39040
O667        O  0.34275072  0.37807118  0.54446796    -1.09220
O668        O  0.35488065  0.38255095  0.64569306    -0.65870
Ni669      Ni  0.37592724  0.36880983  0.58383866     1.26350
O670        O  0.35387661  0.40900348  0.46467367    -0.66100
O671        O  0.36491054  0.32802149  0.59607511    -0.78390
C672        C  0.43575625  0.36481565  0.58743365     0.85050
O673        O  0.41425989  0.36262474  0.61712350    -0.65570
Ni674      Ni  0.30637045  0.36564949  0.56114182     1.27450
Ni675      Ni  0.34936189  0.41993154  0.53426546     1.26060
H676        H  0.39076042  0.42055017  0.59162702     0.39590
O677        O  0.33148878  0.68100645  0.28173690    -0.80360
O678        O  0.32788218  0.54504358  0.26462834    -0.65050
O679        O  0.31711334  0.62405832  0.30318504    -1.11650
C680        C  0.42299255  0.62096899  0.29959311     1.06530
O681        O  0.36960869  0.53865725  0.31165970    -0.78260
O682        O  0.40018104  0.58088530  0.35643670    -0.65840
Ni683      Ni  0.30254709  0.65248324  0.25725047     1.34870
C684        C  0.37910079  0.58028313  0.38501961     0.85260
O685        O  0.27737416  0.58285990  0.27238855    -0.78800
O686        O  0.27021897  0.62708618  0.23495024    -0.89070
C687        C  0.34527096  0.52991162  0.29383687     0.84840
O688        O  0.32932023  0.63907608  0.20442110    -0.67270
O689        O  0.42015975  0.59805703  0.27210407    -0.86560
C690        C  0.33177050  0.61297421  0.18567099     0.85670
C691        C  0.26020924  0.60245930  0.24963127     1.07240
H692        H  0.36797786  0.60105924  0.24651919     0.39040
O693        O  0.36241001  0.59357259  0.27760224    -1.09220
O694        O  0.35761628  0.59998768  0.37707109    -0.65870
Ni695      Ni  0.35864339  0.62696777  0.31742740     1.26350
O696        O  0.31920677  0.59246620  0.20698112    -0.66100
O697        O  0.40123588  0.63216333  0.32458250    -0.78390
C698        C  0.34432420  0.68446190  0.32465721     0.85050
O699        O  0.35152852  0.66251682  0.35240293    -0.65570
Ni700      Ni  0.39479927  0.56779238  0.29046133     1.27450
Ni701      Ni  0.32066742  0.58556899  0.27747994     1.26060
H702        H  0.30577728  0.62487687  0.33300598     0.39590
O703        O  0.34665417  0.29768625  0.14621199    -0.80360
O704        O  0.29681836  0.41340179  0.22353294    -0.65050
O705        O  0.31489884  0.34940126  0.13850721    -1.11650
C706        C  0.41508077  0.38188004  0.14262241     1.06530
O707        O  0.32919735  0.43967846  0.18951873    -0.78260
O708        O  0.36236112  0.42789610  0.11294198    -0.65840
Ni709      Ni  0.30897496  0.31285191  0.17010250     1.34870
C710        C  0.35230574  0.41397175  0.07578575     0.85260
O711        O  0.26455343  0.37504372  0.17655726    -0.78800
O712        O  0.26949135  0.32700847  0.19494459    -0.89070
C713        C  0.31442172  0.43358943  0.22666883     0.84840
O714        O  0.33114557  0.32018350  0.23125455    -0.67270
O715        O  0.40604321  0.40306202  0.17085132    -0.86560
C716        C  0.32594600  0.34224761  0.25917368     0.85670
C717        C  0.25329773  0.35138130  0.19022456     1.07240
H718        H  0.35749286  0.37520519  0.21051690     0.39040
O719        O  0.34914671  0.38451743  0.18122688    -1.09220
O720        O  0.34655560  0.38618297  0.07672178    -0.65870
Ni721      Ni  0.35609293  0.35649909  0.12951641     1.26350
O722        O  0.30858389  0.36309936  0.24420760    -0.66100
O723        O  0.39793566  0.36310047  0.12297367    -0.78390
C724        C  0.35423141  0.29899254  0.10142943     0.85050
O725        O  0.35949196  0.32400395  0.08275223    -0.65570
Ni726      Ni  0.36721724  0.42109000  0.18109629     1.27450
Ni727      Ni  0.30574270  0.38162105  0.18035825     1.26060
H728        H  0.30360719  0.35097763  0.10765627     0.39590
O729        O  0.04608957  0.59709347  0.02342614    -0.80360
O730        O  0.18043591  0.56179825  0.01886551    -0.65050
O731        O  0.09972537  0.56951559  0.05052187    -1.11650
C732        C  0.12220121  0.67145592  0.07239978     1.06530
O733        O  0.18485139  0.58901938  0.08484249    -0.78260
O734        O  0.15420139  0.63151791  0.13314818    -0.65840
Ni735      Ni  0.07108817  0.56339157  0.00000578     1.34870
C736        C  0.14580519  0.60930677  0.15470545     0.85260
O737        O  0.13620003  0.52258830  0.02107985    -0.78800
O738        O  0.09305721  0.52713097  0.97757905    -0.89070
C739        C  0.19685355  0.57382529  0.05130544     0.84840
O740        O  0.08779161  0.58808624  0.94975484    -0.67270
O741        O  0.14773314  0.66429796  0.05458364    -0.86560
C742        C  0.11428135  0.58519998  0.93426448     0.85670
C743        C  0.11530497  0.51104633  0.99533755     1.07240
H744        H  0.13373525  0.61694251  0.00648315     0.39040
O745        O  0.13748283  0.60751153  0.03796923    -1.09220
O746        O  0.12369940  0.59592317  0.13482298    -0.65870
Ni747      Ni  0.10217426  0.60973394  0.07154716     1.26350
O748        O  0.13383049  0.57041601  0.95982310    -0.66100
O749        O  0.10466892  0.65190927  0.08732241    -0.78390
C750        C  0.04188059  0.60656795  0.06791123     0.85050
O751        O  0.06376331  0.60969683  0.09844238    -0.65570
Ni752      Ni  0.16833739  0.62713627  0.06837744     1.27450
Ni753      Ni  0.13912336  0.56479362  0.03045836     1.26060
H754        H  0.09656538  0.55691792  0.07828355     0.39590
O755        O  0.43820905  0.58513828  0.90721507    -0.80360
O756        O  0.33088658  0.59685007  0.99772952    -0.65050
O757        O  0.37935417  0.57245685  0.89525947    -1.11650
C758        C  0.36643097  0.67133816  0.85205630     1.06530
O759        O  0.29732294  0.61976950  0.94764965    -0.78260
O760        O  0.31508041  0.60808133  0.85959909    -0.65840
Ni761      Ni  0.41477110  0.55170699  0.92204346     1.34870
C762        C  0.32638924  0.60923593  0.81818211     0.85260
O763        O  0.35471257  0.54284252  0.97307460    -0.78800
O764        O  0.39190460  0.51812488  0.93549216    -0.89070
C765        C  0.30480423  0.60517569  0.98605288     0.84840
O766        O  0.41486447  0.55952745  0.99490750    -0.67270
O767        O  0.33945477  0.66484182  0.85641273    -0.86560
C768        C  0.40068277  0.58176126  0.01324296     0.85670
C769        C  0.36883705  0.51813012  0.96192176     1.07240
H770        H  0.36360364  0.63664372  0.94527724     0.39040
O771        O  0.35526221  0.62269931  0.92204308    -1.09220
O772        O  0.35497580  0.60987566  0.81602918    -0.65870
Ni773      Ni  0.38390163  0.61239817  0.87444876     1.26350
O774        O  0.38673161  0.59787842  0.98366776    -0.66100
O775        O  0.38824245  0.65288559  0.85984463    -0.78390
C776        C  0.44061946  0.59471414  0.86302274     0.85050
O777        O  0.41743132  0.60130336  0.83621863    -0.65570
Ni778      Ni  0.31931356  0.64078516  0.90224437     1.27450
Ni779      Ni  0.35454990  0.58372861  0.94668600     1.26060
H780        H  0.36919539  0.56090934  0.87038521     0.39590
O781        O  0.13184209  0.68705055  0.63780930    -0.80360
O782        O  0.17518834  0.56370155  0.68605086    -0.65050
O783        O  0.16297452  0.63580500  0.62294019    -1.11650
C784        C  0.06020077  0.61463054  0.63296534     1.06530
O785        O  0.14133651  0.54990257  0.63230667    -0.78260
O786        O  0.09355506  0.57598310  0.58161951    -0.65840
Ni787      Ni  0.16901113  0.66932980  0.66314914     1.34870
C788        C  0.11395534  0.57597509  0.55219764     0.85260
O789        O  0.21258782  0.60497624  0.66140097    -0.78800
O790        O  0.20746066  0.65228361  0.68660446    -0.89070
C791        C  0.15918395  0.54430323  0.66775693     0.84840
O792        O  0.14894197  0.65788204  0.72353710    -0.67270
O793        O  0.06932059  0.59339283  0.66164886    -0.86560
C794        C  0.15559498  0.63405007  0.74698352     0.85670
C795        C  0.22331364  0.62785940  0.68247781     1.07240
H796        H  0.11968555  0.61148467  0.68787960     0.39040
O797        O  0.12680962  0.60244253  0.65779767    -1.09220
O798        O  0.12979877  0.59922411  0.55520405    -0.65870
Ni799      Ni  0.12141925  0.63100681  0.60965348     1.26350
O800        O  0.16980395  0.61332322  0.72523152    -0.66100
O801        O  0.07811950  0.62819721  0.60550959    -0.78390
C802        C  0.12524390  0.68829113  0.59157628     0.85050
O803        O  0.11956803  0.66461121  0.56724390    -0.65570
Ni804      Ni  0.10458324  0.56968943  0.64868463     1.27450
Ni805      Ni  0.17019984  0.60082138  0.65755846     1.26060
H806        H  0.17412814  0.63593689  0.59296529     0.39590
O807        O  0.15216179  0.28968171  0.80192198    -0.80360
O808        O  0.15955024  0.41929507  0.75662590    -0.65050
O809        O  0.16717867  0.34662768  0.81631836    -1.11650
C810        C  0.06099030  0.35828053  0.82502001     1.06530
O811        O  0.12141752  0.43712269  0.79927327    -0.78260
O812        O  0.09371484  0.40695295  0.86616588    -0.65840
Ni813      Ni  0.18091405  0.31527945  0.77470666     1.34870
C814        C  0.11407894  0.39850525  0.89677632     0.85260
O815        O  0.20662532  0.38434819  0.77861825    -0.78800
O816        O  0.21342747  0.33833361  0.74861942    -0.89070
C817        C  0.14100623  0.43974051  0.76723038     0.84840
O818        O  0.15289445  0.32351723  0.71893295    -0.67270
O819        O  0.06308861  0.37934119  0.79480172    -0.86560
C820        C  0.14844012  0.34814501  0.69683459     0.85670
C821        C  0.22348582  0.36401407  0.75914757     1.07240
H822        H  0.11484871  0.36734870  0.75997584     0.39040
O823        O  0.12209118  0.37747312  0.78879622    -1.09220
O824        O  0.13126596  0.37509281  0.88866134    -0.65870
Ni825      Ni  0.12598276  0.34644490  0.83271070     1.26350
O826        O  0.15994170  0.37086349  0.71512596    -0.66100
O827        O  0.08383070  0.34554201  0.84647809    -0.78390
C828        C  0.13943464  0.28866696  0.84382718     0.85050
O829        O  0.13324981  0.31174188  0.87017615    -0.65570
Ni830      Ni  0.09291207  0.40766339  0.79667082     1.27450
Ni831      Ni  0.16404010  0.38271467  0.78402369     1.26060
H832        H  0.17971047  0.34787799  0.84578502     0.39590
C833        C  0.15558526  0.51813107  0.69397793    -0.04810
C834        C  0.13965393  0.52002484  0.73790909    -0.01920
C835        C  0.13469923  0.49427003  0.76295060     0.03070
C836        C  0.14330461  0.46691433  0.74081202    -0.04800
C837        C  0.15563739  0.46547205  0.69285060    -0.01910
C838        C  0.16306778  0.49129524  0.67064804     0.03060
C839        C  0.12594287  0.54799742  0.75470807     0.37710
C840        C  0.16043159  0.43791659  0.66519096     0.37700
C841        C  0.17754999  0.49042600  0.62311941     0.36130
C842        C  0.12106033  0.49633591  0.81102161     0.36130
N843        N  0.18894811  0.48972459  0.58530124    -0.38690
N844        N  0.11014797  0.49814849  0.84922999    -0.38690
N845        N  0.16467606  0.41653344  0.64199750    -0.38140
N846        N  0.11388527  0.56985733  0.76736493    -0.38140
C847        C  0.25354968  0.62577703  0.70941241    -0.04810
C848        C  0.25922961  0.64600751  0.74872870    -0.01920
C849        C  0.28232098  0.63989041  0.78378515     0.03070
C850        C  0.30429291  0.61651189  0.77634860    -0.04800
C851        C  0.30086728  0.59820984  0.73406637    -0.01910
C852        C  0.27527763  0.60217948  0.70167823     0.03060
C853        C  0.24058711  0.67293581  0.75610495     0.37710
C854        C  0.32228196  0.57373321  0.72628558     0.37700
C855        C  0.27149369  0.58176217  0.66061347     0.36130
C856        C  0.28101939  0.65705997  0.82956153     0.36130
N857        N  0.26853937  0.56535895  0.62789120    -0.38690
N858        N  0.27797267  0.67128048  0.86511214    -0.38690
N859        N  0.33936807  0.55412513  0.72018769    -0.38140
N860        N  0.22605901  0.69443348  0.76254517    -0.38140
C861        C  0.12408653  0.59951849  0.88644460    -0.04810
C862        C  0.10733724  0.62286458  0.86162369    -0.01920
C863        C  0.11780927  0.63573973  0.81752961     0.03070
C864        C  0.14625423  0.62730845  0.79926325    -0.04800
C865        C  0.16399246  0.60622050  0.82704564    -0.01910
C866        C  0.15214267  0.59075426  0.86648749     0.03060
C867        C  0.07893485  0.63349248  0.88029126     0.37710
C868        C  0.19482090  0.59955005  0.81451009     0.37700
C869        C  0.16811819  0.56372022  0.88248564     0.36130
C870        C  0.09869018  0.65676549  0.78997216     0.36130
N871        N  0.18060366  0.54178425  0.89398555    -0.38690
N872        N  0.08335102  0.67348249  0.76789085    -0.38690
N873        N  0.21936899  0.59406439  0.80487158    -0.38140
N874        N  0.05619956  0.64228133  0.89477196    -0.38140
C875        C  0.11620376  0.47789350  0.98376133    -0.04810
C876        C  0.08926822  0.46347950  0.97557660    -0.01920
C877        C  0.08939618  0.43424521  0.95633322     0.03070
C878        C  0.11618852  0.41940444  0.94065476    -0.04800
C879        C  0.14318846  0.43181865  0.95567597    -0.01910
C880        C  0.14302460  0.46003026  0.98009018     0.03060
C881        C  0.06101439  0.47834824  0.98778810     0.37710
C882        C  0.17110019  0.41640817  0.94395898     0.37700
C883        C  0.16981167  0.46909204  0.00518362     0.36130
C884        C  0.06120540  0.42038594  0.94914261     0.36130
N885        N  0.19078031  0.47522838  0.02790277    -0.38690
N886        N  0.03831776  0.41019746  0.94349531    -0.38690
N887        N  0.19340881  0.40410568  0.93445553    -0.38140
N888        N  0.03841950  0.49007849  0.99730947    -0.38140
C889        C  0.28193631  0.59242874  0.01170538    -0.04810
C890        C  0.26906964  0.56768155  0.99002905    -0.01920
C891        C  0.24302085  0.55805295  0.00891545     0.03070
C892        C  0.22887201  0.57510450  0.04631918    -0.04800
C893        C  0.24428810  0.59798292  0.07168079    -0.01910
C894        C  0.27125780  0.60624277  0.05415391     0.03060
C895        C  0.28218102  0.55285168  0.94712975     0.37710
C896        C  0.23145056  0.61651619  0.11062241     0.37700
C897        C  0.28596769  0.63148745  0.07552729     0.36130
C898        C  0.23034311  0.53210019  0.98669241     0.36130
N899        N  0.29712661  0.65193976  0.09221238    -0.38690
N900        N  0.22146844  0.51143448  0.96685587    -0.38690
N901        N  0.22174378  0.63264005  0.14022758    -0.38140
N902        N  0.29256799  0.54105902  0.91307294    -0.38140
C903        C  0.34739453  0.43382786  0.03174668    -0.04810
C904        C  0.32933122  0.45994529  0.03886534    -0.01920
C905        C  0.33628488  0.48713712  0.01726247     0.03070
C906        C  0.35919713  0.48838753  0.98214485    -0.04800
C907        C  0.37402822  0.46063175  0.96907668    -0.01910
C908        C  0.36895540  0.43411990  0.99508393     0.03060
C909        C  0.30515795  0.45938401  0.07325569     0.37710
C910        C  0.39569023  0.45891928  0.93043961     0.37700
C911        C  0.38754488  0.40748227  0.98682928     0.36130
C912        C  0.32200207  0.51386151  0.03709671     0.36130
N913        N  0.40241306  0.38620961  0.98051482    -0.38690
N914        N  0.31094365  0.53461552  0.05561512    -0.38690
N915        N  0.41301358  0.45726949  0.89962239    -0.38140
N916        N  0.28585073  0.45897415  0.10050785    -0.38140
C917        C  0.39426461  0.58808586  0.06676410    -0.04810
C918        C  0.38936104  0.61804331  0.08187439    -0.01920
C919        C  0.36902997  0.62629476  0.11950399     0.03070
C920        C  0.35321515  0.60460380  0.14400851    -0.04800
C921        C  0.36047092  0.57419029  0.13126028    -0.01910
C922        C  0.38161144  0.56634711  0.09469509     0.03060
C923        C  0.40457481  0.64077144  0.05668153     0.37710
C924        C  0.34527894  0.55010986  0.15251418     0.37700
C925        C  0.38957953  0.53555472  0.08430041     0.36130
C926        C  0.36326928  0.65751816  0.12996608     0.36130
N927        N  0.39624996  0.51097229  0.07648715    -0.38690
N928        N  0.35847459  0.68255325  0.13716997    -0.38690
N929        N  0.33332582  0.53002813  0.16694908    -0.38140
N930        N  0.41670451  0.65887492  0.03659341    -0.38140
C931        C  0.16661881  0.59921741  0.19759841    -0.04810
C932        C  0.18623140  0.57373347  0.19255747    -0.01920
C933        C  0.21631757  0.57337318  0.21207305     0.03070
C934        C  0.22701104  0.59800361  0.23908370    -0.04800
C935        C  0.20570137  0.62100592  0.25120565    -0.01910
C936        C  0.17608159  0.62148819  0.23107756     0.03060
C937        C  0.17606866  0.54861648  0.16434386     0.37710
C938        C  0.21469098  0.64533764  0.28267264     0.37700
C939        C  0.15584157  0.64664318  0.24142141     0.36130
C940        C  0.23687563  0.54874266  0.20067007     0.36130
N941        N  0.13986906  0.66682485  0.24981413    -0.38690
N942        N  0.25336005  0.52910536  0.19144142    -0.38690
N943        N  0.22188624  0.66480404  0.30763833    -0.38140
N944        N  0.16792657  0.52856418  0.14173651    -0.38140
C945        C  0.33816921  0.50026043  0.30590462    -0.04810
C946        C  0.36021579  0.47726369  0.30063551    -0.01920
C947        C  0.35103542  0.44939412  0.28734131     0.03070
C948        C  0.32090270  0.44657182  0.27458366    -0.04800
C949        C  0.29933131  0.46629519  0.29466591    -0.01910
C950        C  0.30827723  0.49380778  0.31128413     0.03060
C951        C  0.39165535  0.48296297  0.29870434     0.37710
C952        C  0.26816886  0.46004303  0.29288279     0.37700
C953        C  0.28676223  0.51615020  0.32892671     0.36130
C954        C  0.37311528  0.42596656  0.27731368     0.36130
N955        N  0.26948612  0.53375714  0.34339351    -0.38690
N956        N  0.39228264  0.40865855  0.27001953    -0.38690
N957        N  0.24305503  0.45592374  0.29297926    -0.38140
N958        N  0.41662487  0.48736946  0.29593064    -0.38140
C959        C  0.36141227  0.37240762  0.39961512    -0.04810
C960        C  0.38094814  0.36513524  0.36050864    -0.01920
C961        C  0.37038384  0.35101028  0.31650872     0.03070
C962        C  0.33995917  0.34540636  0.30982184    -0.04800
C963        C  0.32156242  0.34897923  0.35062805    -0.01910
C964        C  0.33225919  0.36157693  0.39545514     0.03060
C965        C  0.41166848  0.37317640  0.36439139     0.37710
C966        C  0.29181942  0.33805298  0.34683561     0.37700
C967        C  0.31365292  0.36018832  0.43774629     0.36130
C968        C  0.39070865  0.34283124  0.27763662     0.36130
N969        N  0.29771307  0.35697698  0.46974144    -0.38690
N970        N  0.40701555  0.33637307  0.24661739    -0.38690
N971        N  0.26834412  0.32883687  0.34372672    -0.38140
N972        N  0.43614455  0.37975218  0.36738509    -0.38140
C973        C  0.38032300  0.55317771  0.41950104    -0.04810
C974        C  0.35787417  0.54701724  0.45282494    -0.01920
C975        C  0.35884099  0.51965260  0.47953033     0.03070
C976        C  0.38117313  0.49643877  0.47080910    -0.04800
C977        C  0.40300295  0.50248564  0.43624525    -0.01910
C978        C  0.40412136  0.53079794  0.41473871     0.03060
C979        C  0.33397378  0.56908841  0.46065462     0.37710
C980        C  0.42404720  0.47916761  0.41975939     0.37700
C981        C  0.43072932  0.53588869  0.38733694     0.36130
C982        C  0.33638432  0.51582957  0.51586771     0.36130
N983        N  0.45192917  0.53955567  0.36548539    -0.38690
N984        N  0.31843633  0.51305435  0.54498694    -0.38690
N985        N  0.44055502  0.46067330  0.40574281    -0.38140
N986        N  0.31490724  0.58674144  0.46706845    -0.38140
C987        C  0.31413814  0.37843666  0.70762455    -0.04810
C988        C  0.29282950  0.40247811  0.71166889    -0.01920
C989        C  0.26421759  0.39871651  0.73187652     0.03070
C990        C  0.25579661  0.37033416  0.74715771    -0.04800
C991        C  0.27892005  0.34774629  0.75051644    -0.01910
C992        C  0.30777908  0.35208480  0.73219441     0.03060
C993        C  0.29918897  0.43037482  0.68945092     0.37710
C994        C  0.27321212  0.31974355  0.77290739     0.37700
C995        C  0.33022153  0.32792321  0.73308688     0.36130
C996        C  0.24293413  0.42385715  0.73327724     0.36130
N997        N  0.34818585  0.30868258  0.73371770    -0.38690
N998        N  0.22608810  0.44405814  0.73393340    -0.38690
N999        N  0.26872708  0.29739663  0.79092971    -0.38140
N1000       N  0.30423488  0.45257225  0.67143148    -0.38140
C1001       C  0.10491919  0.36603172  0.55214524    -0.04810
C1002       C  0.09273950  0.37910704  0.59470182    -0.01920
C1003       C  0.10670758  0.37400530  0.64186738     0.03070
C1004       C  0.12972155  0.35125912  0.64893144    -0.04800
C1005       C  0.13619697  0.33290926  0.60772325    -0.01910
C1006       C  0.12524430  0.34108815  0.55942977     0.03060
C1007       C  0.06648394  0.39897574  0.58953590     0.37710
C1008       C  0.15756490  0.30793192  0.61365963     0.37700
C1009       C  0.13814310  0.32511117  0.51821692     0.36130
C1010       C  0.09752207  0.39392827  0.68110031     0.36130
N1011       N  0.15099213  0.31141953  0.48867530    -0.38690
N1012       N  0.08853905  0.41145141  0.70908719    -0.38690
N1013       N  0.17474910  0.28816013  0.61819165    -0.38140
N1014       N  0.04545669  0.41465787  0.58535917    -0.38140
C1015       C  0.12072689  0.48737394  0.47669648    -0.04810
C1016       C  0.13054170  0.51280976  0.45243023    -0.01920
C1017       C  0.13081085  0.54142044  0.47712659     0.03070
C1018       C  0.11933129  0.54563082  0.52530353    -0.04800
C1019       C  0.10966383  0.51924509  0.54856043    -0.01910
C1020       C  0.11331327  0.49096860  0.52633489     0.03060
C1021       C  0.13992797  0.50969467  0.40191083     0.37710
C1022       C  0.09416502  0.51980539  0.59514451     0.37700
C1023       C  0.11068257  0.46490980  0.55622544     0.36130
C1024       C  0.14110890  0.56672272  0.45176834     0.36130
N1025       N  0.10948559  0.44452463  0.58118582    -0.38690
N1026       N  0.14940437  0.58698687  0.43153266    -0.38690
N1027       N  0.08159018  0.51940805  0.63184222    -0.38140
N1028       N  0.14752047  0.50716672  0.36151268    -0.38140
C1029       C  0.22120920  0.38420872  0.45334107    -0.06090
C1030       C  0.24216533  0.39854939  0.42650853    -0.01920
C1031       C  0.26311421  0.41506244  0.45214093     0.03070
C1032       C  0.26349101  0.41555060  0.50483027    -0.04800
C1033       C  0.24121270  0.40249233  0.53072953    -0.01910
C1034       C  0.22122585  0.38566322  0.50524812     0.03060
C1035       C  0.24176349  0.39649206  0.37290392     0.37710
C1036       C  0.23910945  0.40523628  0.58421718     0.37700
C1037       C  0.19898036  0.37231381  0.53362990     0.36130
C1038       C  0.28473527  0.43001210  0.42407635     0.36130
N1039       N  0.18246904  0.36377283  0.56105340    -0.38690
N1040       N  0.30228123  0.44170246  0.40204414    -0.38690
N1041       N  0.23700067  0.40619803  0.62663728    -0.38140
N1042       N  0.24144050  0.39427634  0.33025234    -0.38140
C1043       C  0.16487907  0.35434614  0.25267672    -0.04810
C1044       C  0.17633817  0.32814409  0.22913079    -0.01920
C1045       C  0.20437693  0.32723787  0.20654241     0.03070
C1046       C  0.22078612  0.35305225  0.20447100    -0.04800
C1047       C  0.20593476  0.38047872  0.21854299    -0.01910
C1048       C  0.17891361  0.38087843  0.24442871     0.03060
C1049       C  0.16015195  0.30130221  0.23154054     0.37710
C1050       C  0.21804466  0.40853854  0.20685424     0.37700
C1051       C  0.16708431  0.40824669  0.26648892     0.36130
C1052       C  0.21608079  0.29953393  0.18549687     0.36130
N1053       N  0.15777373  0.43005173  0.28436345    -0.38690
N1054       N  0.22526689  0.27734939  0.16876515    -0.38690
N1055       N  0.22728014  0.43092549  0.19620807    -0.38140
N1056       N  0.14746689  0.27976124  0.23329264    -0.38140
C1057       C  0.35430954  0.20806320  0.06038956    -0.04810
C1058       C  0.38109282  0.22293780  0.05698086    -0.01920
C1059       C  0.38112716  0.25410657  0.06438499     0.03070
C1060       C  0.35433654  0.27058374  0.07358834    -0.04800
C1061       C  0.32738913  0.25608940  0.07234128    -0.01910
C1062       C  0.32744028  0.22509988  0.06846942     0.03060
C1063       C  0.40863167  0.20625304  0.04695108     0.37710
C1064       C  0.29948147  0.27314167  0.07912102     0.37700
C1065       C  0.30000680  0.21090843  0.07822858     0.36130
C1066       C  0.40876222  0.26909054  0.06447548     0.36130
N1067       N  0.27818038  0.19982452  0.08679679    -0.38690
N1068       N  0.43083142  0.28106943  0.06418837    -0.38690
N1069       N  0.27729555  0.28669488  0.08457237    -0.38140
N1070       N  0.43063507  0.19292844  0.03897580    -0.38140
C1071       C  0.22617032  0.06205701  0.93277008    -0.04810
C1072       C  0.23312308  0.03874213  0.96605572    -0.01920
C1073       C  0.24877710  0.04447437  0.01019832     0.03070
C1074       C  0.25676688  0.07356658  0.02130661    -0.04800
C1075       C  0.24816466  0.09678760  0.98930461    -0.01910
C1076       C  0.23726316  0.09020763  0.94195411     0.03060
C1077       C  0.22405290  0.00902594  0.95465956     0.37710
C1078       C  0.25117718  0.12737958  0.00464197     0.37700
C1079       C  0.23487150  0.11330255  0.90501369     0.36130
C1080       C  0.25799965  0.02045968  0.04327273     0.36130
N1081       N  0.23291443  0.13182111  0.87580033    -0.38690
N1082       N  0.26538801  0.00136298  0.06968338    -0.38690
N1083       N  0.25300040  0.15186057  0.01673578    -0.38140
N1084       N  0.21679411  0.98535309  0.94557095    -0.38140
C1085       C  0.12992604  0.25938331  0.85861855    -0.04810
C1086       C  0.14134479  0.24610880  0.90234881    -0.01920
C1087       C  0.13929503  0.21540009  0.90884495     0.03070
C1088       C  0.12643893  0.19776926  0.87086998    -0.04800
C1089       C  0.11100814  0.21209776  0.83078687    -0.01910
C1090       C  0.11297573  0.24279681  0.82461946     0.03060
C1091       C  0.15695757  0.26361058  0.93901062     0.37710
C1092       C  0.09398597  0.19551863  0.79467085     0.37700
C1093       C  0.09837507  0.25728505  0.78217269     0.36130
C1094       C  0.15055354  0.20208189  0.95465903     0.36130
N1095       N  0.08681002  0.26887089  0.74835495    -0.38690
N1096       N  0.15944699  0.19158111  0.99132742    -0.38690
N1097       N  0.08002183  0.18249539  0.76611574    -0.38140
N1098       N  0.16941002  0.27760933  0.96821071    -0.38140
C1099       C  0.11102919  0.76489513  0.10644555    -0.04810
C1100       C  0.09999498  0.74382079  0.13847484    -0.01920
C1101       C  0.10102642  0.71348877  0.12534235     0.03070
C1102       C  0.11418468  0.70366732  0.08067880    -0.04800
C1103       C  0.12259155  0.72508882  0.04665272    -0.01910
C1104       C  0.12096614  0.75554657  0.05944569     0.03060
C1105       C  0.08849206  0.75314652  0.18608536     0.37710
C1106       C  0.13303703  0.71584819  0.99835323     0.37700
C1107       C  0.13158385  0.77697948  0.02554196     0.36130
C1108       C  0.08968426  0.69246633  0.15928657     0.36130
N1109       N  0.14008848  0.79409572  0.99856935    -0.38690
N1110       N  0.08032645  0.67578204  0.18615195    -0.38690
N1111       N  0.14130421  0.70851409  0.95977128    -0.38140
N1112       N  0.07960042  0.76034562  0.22432958    -0.38140
C1113       C  0.10107195  0.92928645  0.03070039    -0.04810
C1114       C  0.09030183  0.95859895  0.04508405    -0.01920
C1115       C  0.09887864  0.98363428  0.02058820     0.03070
C1116       C  0.11030351  0.98128366  0.97309710    -0.04800
C1117       C  0.12042595  0.95268416  0.95627738    -0.01910
C1118       C  0.11716657  0.92698745  0.98623252     0.03060
C1119       C  0.07058365  0.96501009  0.08589819     0.37710
C1120       C  0.13404635  0.94964968  0.90861823     0.37700
C1121       C  0.12888068  0.89824642  0.96993848     0.36130
C1122       C  0.09660744  0.01225022  0.04586970     0.36130
N1123       N  0.13830556  0.87525309  0.95693946    -0.38690
N1124       N  0.09484539  0.03464440  0.06686224    -0.38690
N1125       N  0.14500834  0.94721171  0.87052319    -0.38140
N1126       N  0.05570183  0.97206104  0.11858046    -0.38140
C1127       C  0.10569061  0.20761841  0.34210274    -0.04810
C1128       C  0.09451144  0.22739634  0.30508914    -0.01920
C1129       C  0.09046210  0.25778661  0.31613436     0.03070
C1130       C  0.09780886  0.26805141  0.36409464    -0.04800
C1131       C  0.10175884  0.24740721  0.40290346    -0.01910
C1132       C  0.10625047  0.21705176  0.39184419     0.03060
C1133       C  0.08925514  0.21672849  0.25494494     0.37710
C1134       C  0.10253263  0.25755987  0.45392377     0.37700
C1135       C  0.11435782  0.19626024  0.43092689     0.36130
C1136       C  0.08132656  0.27844343  0.27734224     0.36130
N1137       N  0.12084211  0.17965844  0.46210152    -0.38690
N1138       N  0.07394139  0.29491844  0.24642032    -0.38690
N1139       N  0.10275548  0.26528552  0.49484914    -0.38140
N1140       N  0.08510355  0.20821401  0.21496533    -0.38140
C1141       C  0.12151579  0.10043193  0.04302435    -0.04810
C1142       C  0.10193524  0.10739640  0.08219216    -0.01920
C1143       C  0.11294992  0.11941192  0.12775584     0.03070
C1144       C  0.14379073  0.12291779  0.13563237    -0.04800
C1145       C  0.16265799  0.11839623  0.09566352    -0.01910
C1146       C  0.15126510  0.10909268  0.04931325     0.03060
C1147       C  0.07063955  0.10196365  0.07620945     0.37710
C1148       C  0.19396508  0.12420783  0.10219344     0.37700
C1149       C  0.16902042  0.11353637  0.00711409     0.36130
C1150       C  0.09267676  0.12766821  0.16676570     0.36130
N1151       N  0.18312788  0.11981457  0.97434336    -0.38690
N1152       N  0.07643817  0.13438178  0.19781698    -0.38690
N1153       N  0.21882223  0.12880615  0.10845088    -0.38140
N1154       N  0.04563298  0.09757014  0.07153812    -0.38140
C1155       C  0.26261704  0.11743771  0.23864289    -0.04810
C1156       C  0.28046967  0.14233315  0.24192046    -0.01920
C1157       C  0.30890415  0.14155740  0.22043118     0.03070
C1158       C  0.31987130  0.11628173  0.19389256    -0.04800
C1159       C  0.30416737  0.09019356  0.19674373    -0.01910
C1160       C  0.27584952  0.09062580  0.21894651     0.03060
C1161       C  0.26950073  0.16913481  0.26674632     0.37710
C1162       C  0.31577018  0.06355433  0.17205865     0.37700
C1163       C  0.26001219  0.06356034  0.21828138     0.36130
C1164       C  0.32594631  0.16791909  0.22137619     0.36130
N1165       N  0.24831329  0.04137986  0.21744439    -0.38690
N1166       N  0.33956079  0.18892868  0.22192807    -0.38690
N1167       N  0.32495795  0.04234405  0.15219239    -0.38140
N1168       N  0.26080233  0.19055774  0.28654578    -0.38140
C1169       C  0.15092415  0.03741048  0.18448856    -0.04810
C1170       C  0.16914228  0.02280686  0.15004903    -0.01920
C1171       C  0.16619918  0.99223808  0.14353404     0.03070
C1172       C  0.14245875  0.97934835  0.16702784    -0.04800
C1173       C  0.11921242  0.99740565  0.18683656    -0.01910
C1174       C  0.12215412  0.02767828  0.18691235     0.03060
C1175       C  0.19287594  0.03824341  0.12884858     0.37710
C1176       C  0.09360054  0.98522783  0.20884163     0.37700
C1177       C  0.09642598  0.04773249  0.18160804     0.36130
C1178       C  0.18700312  0.97457849  0.11421616     0.36130
N1179       N  0.07508040  0.06271796  0.17547344    -0.38690
N1180       N  0.20359733  0.96046093  0.09071074    -0.38690
N1181       N  0.07353541  0.97514151  0.22694387    -0.38140
N1182       N  0.21151708  0.05129806  0.11220110    -0.38140
C1183       C  0.36003994  0.77495651  0.36601699    -0.04810
C1184       C  0.36953364  0.76356095  0.31983702    -0.01920
C1185       C  0.36600498  0.73348909  0.30748192     0.03070
C1186       C  0.35266879  0.71465193  0.34077912    -0.04800
C1187       C  0.34708896  0.72505462  0.38927354    -0.01910
C1188       C  0.35122479  0.75494707  0.40201768     0.03060
C1189       C  0.38171455  0.78280925  0.28392029     0.37710
C1190       C  0.33557827  0.70554951  0.42548725     0.37700
C1191       C  0.34593829  0.76526506  0.45217694     0.36130
C1192       C  0.37674561  0.72185156  0.26077216     0.36130
N1193       N  0.34183795  0.77347803  0.49220289    -0.38690
N1194       N  0.38582213  0.71273563  0.22373203    -0.38690
N1195       N  0.32643848  0.68998787  0.45440740    -0.38140
N1196       N  0.39159051  0.79808630  0.25530347    -0.38140
C1197       C  0.30399361  0.86990612  0.24058385    -0.04810
C1198       C  0.29422265  0.84560351  0.21193126    -0.01920
C1199       C  0.26459921  0.84521391  0.19266544     0.03070
C1200       C  0.24406080  0.86948949  0.20033761    -0.04800
C1201       C  0.25518409  0.89562491  0.22218692    -0.01910
C1202       C  0.28502520  0.89586307  0.24162736     0.03060
C1203       C  0.31410708  0.81964252  0.20580375     0.37710
C1204       C  0.23538941  0.92156931  0.22864217     0.37700
C1205       C  0.29537320  0.92204670  0.26670914     0.36130
C1206       C  0.25502371  0.81917382  0.16610021     0.36130
N1207       N  0.30365438  0.94293024  0.28680390    -0.38690
N1208       N  0.24739098  0.79836142  0.14501207    -0.38690
N1209       N  0.21975880  0.94240957  0.23400793    -0.38140
N1210       N  0.32964728  0.79873433  0.20054560    -0.38140
C1211       C  0.09670537  0.89558467  0.39575217    -0.04810
C1212       C  0.10020344  0.86479219  0.38620252    -0.01920
C1213       C  0.11414895  0.85389510  0.34233930     0.03070
C1214       C  0.12749339  0.87360896  0.30988007    -0.04800
C1215       C  0.12409159  0.90456488  0.32135397    -0.01910
C1216       C  0.10589779  0.91501100  0.35995325     0.03060
C1217       C  0.09070893  0.84425714  0.42247499     0.37710
C1218       C  0.14181014  0.92637165  0.29902863     0.37700
C1219       C  0.09781041  0.94644055  0.36470688     0.36130
C1220       C  0.11647698  0.82225933  0.33310733     0.36130
N1221       N  0.09114346  0.97140508  0.36835814    -0.38690
N1222       N  0.11824962  0.79695623  0.32596059    -0.38690
N1223       N  0.15621470  0.94476628  0.28486897    -0.38140
N1224       N  0.08333722  0.82768066  0.45136056    -0.38140
C1225       C  0.11328588  0.00547801  0.48261548    -0.04810
C1226       C  0.13900366  0.00637989  0.45380621    -0.01920
C1227       C  0.14726032  0.03302299  0.43311906     0.03070
C1228       C  0.12606105  0.05675261  0.42784163    -0.04800
C1229       C  0.09961328  0.05612849  0.45489371    -0.01910
C1230       C  0.09392341  0.03113075  0.48412020     0.03060
C1231       C  0.15167739  0.97946092  0.43209207     0.37710
C1232       C  0.07719488  0.08006756  0.44902419     0.37700
C1233       C  0.06713656  0.03098273  0.51237170     0.36130
C1234       C  0.17525325  0.03388773  0.40779746     0.36130
N1235       N  0.04567187  0.03084043  0.53483375    -0.38690
N1236       N  0.19747481  0.03456495  0.38752396    -0.38690
N1237       N  0.05926295  0.09913777  0.44400170    -0.38140
N1238       N  0.16077686  0.95925075  0.40958587    -0.38140
C1239       C  0.24151733  0.91727814  0.37101115    -0.04810
C1240       C  0.23621579  0.94322291  0.39892721    -0.01920
C1241       C  0.22205668  0.94048223  0.44387274     0.03070
C1242       C  0.20886048  0.91356110  0.45359065    -0.04800
C1243       C  0.20530578  0.89243857  0.41527668    -0.01910
C1244       C  0.22015165  0.89583629  0.37137145     0.03060
C1245       C  0.25146099  0.96957233  0.38742719     0.37710
C1246       C  0.18651496  0.86758402  0.42064586     0.37700
C1247       C  0.21922178  0.87306891  0.33341189     0.36130
C1248       C  0.22041553  0.96498830  0.47896992     0.36130
N1249       N  0.21856752  0.85398176  0.30468123    -0.38690
N1250       N  0.21878251  0.98455867  0.50688501    -0.38690
N1251       N  0.17170116  0.84763710  0.42435481    -0.38140
N1252       N  0.26369176  0.99060605  0.37821323    -0.38140
C1253       C  0.12890053  0.77987511  0.55510151    -0.04810
C1254       C  0.15520212  0.76116232  0.55774430    -0.01920
C1255       C  0.15355942  0.73040363  0.56430798     0.03070
C1256       C  0.12579066  0.71776765  0.56858774    -0.04800
C1257       C  0.09955663  0.73592703  0.56423729    -0.01910
C1258       C  0.10107539  0.76684834  0.55798006     0.03060
C1259       C  0.18428505  0.77362849  0.55783413     0.37710
C1260       C  0.07102138  0.72288537  0.56880745     0.37700
C1261       C  0.07383164  0.78503284  0.55617645     0.36130
C1262       C  0.18071815  0.71179265  0.56956820     0.36130
N1263       N  0.05156071  0.79884866  0.55564871    -0.38690
N1264       N  0.20234004  0.69698559  0.57399309    -0.38690
N1265       N  0.04829131  0.71242791  0.57241652    -0.38140
N1266       N  0.20746020  0.78354832  0.55812363    -0.38140
C1267       C  0.36530464  0.76469054  0.83457599    -0.04810
C1268       C  0.38694764  0.75079022  0.86665311    -0.01920
C1269       C  0.38956977  0.71958831  0.86938722     0.03070
C1270       C  0.37127182  0.70217252  0.83888014    -0.04800
C1271       C  0.35165848  0.71590826  0.80390584    -0.01910
C1272       C  0.34707022  0.74673689  0.80410853     0.03060
C1273       C  0.40626670  0.76815301  0.89760083     0.37710
C1274       C  0.33611272  0.69818646  0.76731205     0.37700
C1275       C  0.32213958  0.75943035  0.77469441     0.36130
C1276       C  0.41036380  0.70550586  0.90485917     0.36130
N1277       N  0.30214950  0.76925127  0.75135802    -0.38690
N1278       N  0.42703339  0.69427459  0.93300240    -0.38690
N1279       N  0.32404014  0.68440516  0.73737050    -0.38140
N1280       N  0.42190304  0.78135164  0.92311589    -0.38140
C1281       C  0.34282916  0.87505065  0.64696398    -0.04810
C1282       C  0.36315508  0.89708878  0.63750540    -0.01920
C1283       C  0.36828712  0.90566275  0.58859608     0.03070
C1284       C  0.35244833  0.89318305  0.54843302    -0.04800
C1285       C  0.33183572  0.87138006  0.55790244    -0.01910
C1286       C  0.32778888  0.86177885  0.60669206     0.03060
C1287       C  0.37931261  0.91111394  0.67761746     0.37710
C1288       C  0.31418166  0.85883899  0.51804120     0.37700
C1289       C  0.30709995  0.83898895  0.61562445     0.36130
C1290       C  0.38897331  0.92850572  0.57984605     0.36130
N1291       N  0.29072609  0.82074391  0.62288813    -0.38690
N1292       N  0.40547026  0.94666188  0.57275308    -0.38690
N1293       N  0.29932908  0.84851710  0.48751396    -0.38140
N1294       N  0.39289019  0.92296249  0.70812661    -0.38140
C1295       C  0.23844837  0.88194440  0.73789601    -0.04810
C1296       C  0.21008726  0.87425450  0.75358990    -0.01920
C1297       C  0.18524294  0.87379446  0.71906030     0.03070
C1298       C  0.18977542  0.87633274  0.66754823    -0.04800
C1299       C  0.21917265  0.88252467  0.65339253    -0.01910
C1300       C  0.24078014  0.89042815  0.68869492     0.03060
C1301       C  0.20654030  0.86706895  0.80491114     0.37710
C1302       C  0.23072402  0.87478301  0.60528348     0.37700
C1303       C  0.26636772  0.90577727  0.67302884     0.36130
C1304       C  0.15602566  0.86772456  0.73590475     0.36130
N1305       N  0.28575088  0.91903902  0.65930134    -0.38690
N1306       N  0.13259295  0.86301110  0.74932148    -0.38690
N1307       N  0.24237677  0.86734497  0.56927260    -0.38140
N1308       N  0.20369217  0.86146974  0.84606335    -0.38140
C1309       C  0.36910730  0.97804461  0.99658201    -0.04810
C1310       C  0.34391681  0.96875772  0.96905887    -0.01920
C1311       C  0.34344434  0.93954703  0.94888682     0.03070
C1312       C  0.36868061  0.91970995  0.95367171    -0.04800
C1313       C  0.39205660  0.92783657  0.98640258    -0.01910
C1314       C  0.39234730  0.95671677  0.00748132     0.03060
C1315       C  0.31984306  0.99010333  0.95670406     0.37710
C1316       C  0.41709811  0.90703472  0.99549008     0.37700
C1317       C  0.41723627  0.96482938  0.03905992     0.36130
C1318       C  0.31809693  0.93086552  0.91891038     0.36130
N1319       N  0.43709232  0.97130978  0.06427441    -0.38690
N1320       N  0.29781366  0.92394376  0.89510517    -0.38690
N1321       N  0.43724103  0.89070611  0.00339814    -0.38140
N1322       N  0.30080273  0.00716545  0.94598199    -0.38140
C1323       C  0.34322239  0.28027174  0.58579943    -0.04810
C1324       C  0.36879532  0.26124770  0.57879512    -0.01920
C1325       C  0.36752961  0.23018455  0.58513192     0.03070
C1326       C  0.34056795  0.21777435  0.59745250    -0.04800
C1327       C  0.31512119  0.23685234  0.60454572    -0.01910
C1328       C  0.31657631  0.26776009  0.59990754     0.03060
C1329       C  0.39644208  0.27353697  0.56507189     0.37710
C1330       C  0.28714953  0.22463619  0.61721763     0.37700
C1331       C  0.29083968  0.28676352  0.61259108     0.36130
C1332       C  0.39438449  0.21130824  0.58193051     0.36130
N1333       N  0.27039795  0.30187365  0.62302993    -0.38690
N1334       N  0.41603353  0.19648006  0.57997801    -0.38690
N1335       N  0.26490586  0.21489075  0.62740617    -0.38140
N1336       N  0.41852950  0.28336547  0.55424778    -0.38140
C1337       C  0.33771662  0.10681320  0.79213346    -0.04810
C1338       C  0.36123297  0.08489453  0.79914866    -0.01920
C1339       C  0.37197923  0.07700399  0.84730231     0.03070
C1340       C  0.35864030  0.08974084  0.88951415    -0.04800
C1341       C  0.33488367  0.11136732  0.88222138    -0.01910
C1342       C  0.32526977  0.12042238  0.83421926     0.03060
C1343       C  0.37526888  0.07039475  0.75750288     0.37710
C1344       C  0.31953929  0.12491494  0.92318271     0.37700
C1345       C  0.30165963  0.14335243  0.82806727     0.36130
C1346       C  0.39614134  0.05471933  0.85347817     0.36130
N1347       N  0.28306206  0.16177196  0.82292043    -0.38690
N1348       N  0.41543503  0.03702742  0.85864582    -0.38690
N1349       N  0.30583119  0.13716786  0.95319982    -0.38140
N1350       N  0.38780739  0.05805451  0.72612094    -0.38140
C1351       C  0.16497788  0.09669090  0.73696348    -0.04810
C1352       C  0.16852329  0.12028769  0.70414595    -0.01920
C1353       C  0.19634416  0.12424072  0.68243984     0.03070
C1354       C  0.22103198  0.10467461  0.69367188    -0.04800
C1355       C  0.21649876  0.07943040  0.72228646    -0.01910
C1356       C  0.18802959  0.07437686  0.74037308     0.03060
C1357       C  0.14419254  0.14208523  0.69657615     0.37710
C1358       C  0.24199244  0.06147720  0.74012637     0.37700
C1359       C  0.18351697  0.04803304  0.76866239     0.36130
C1360       C  0.19996621  0.14934337  0.65080060     0.36130
N1361       N  0.17989694  0.02695499  0.79108499    -0.38690
N1362       N  0.20288916  0.16941190  0.62559499    -0.38690
N1363       N  0.26269148  0.04827104  0.75595591    -0.38140
N1364       N  0.12484445  0.15954619  0.69003309    -0.38140
C1365       C  0.32962800  0.00271826  0.67621429    -0.04810
C1366       C  0.35831544  0.99683525  0.69713142    -0.01920
C1367       C  0.36150126  0.98754320  0.74635270     0.03070
C1368       C  0.33608242  0.98113585  0.77255756    -0.04800
C1369       C  0.30750744  0.98829330  0.75224519    -0.01910
C1370       C  0.30440952  0.99563829  0.70237976     0.03060
C1371       C  0.38452167  0.00066807  0.66840909     0.37710
C1372       C  0.28139278  0.98391560  0.78115975     0.37700
C1373       C  0.27517186  0.99760863  0.67822344     0.36130
C1374       C  0.39094756  0.98285178  0.76897095     0.36130
N1375       N  0.25188076  0.99911351  0.65897832    -0.38690
N1376       N  0.41445548  0.97909546  0.78687410    -0.38690
N1377       N  0.26069813  0.98039246  0.80434171    -0.38140
N1378       N  0.40554275  0.00366791  0.64577066    -0.38140
C1379       C  0.34260628  0.06178702  0.48722865    -0.04810
C1380       C  0.31989141  0.04202222  0.49528391    -0.01920
C1381       C  0.32147365  0.01291185  0.47457494     0.03070
C1382       C  0.34422434  0.00408535  0.44166505    -0.04800
C1383       C  0.36400729  0.02557847  0.42748947    -0.01910
C1384       C  0.36337058  0.05400644  0.45041615     0.03060
C1385       C  0.29637004  0.05068369  0.52872785     0.37710
C1386       C  0.38615982  0.01794903  0.39102757     0.37700
C1387       C  0.38580471  0.07454466  0.43914997     0.36130
C1388       C  0.30224584  0.99091618  0.49238761     0.36130
N1389       N  0.40379797  0.09079936  0.42990810    -0.38690
N1390       N  0.28761267  0.97295000  0.50734509    -0.38690
N1391       N  0.40384025  0.01197896  0.36185825    -0.38140
N1392       N  0.27736956  0.05752956  0.55506720    -0.38140
C1393       C  0.96094574  0.86057556  0.63183895    -0.04810
C1394       C  0.97316712  0.84887434  0.58777082    -0.01920
C1395       C  0.00283563  0.85378756  0.57714386     0.03070
C1396       C  0.02193563  0.86623789  0.61342875    -0.04800
C1397       C  0.01115737  0.87251983  0.66100897    -0.01910
C1398       C  0.98052314  0.87037184  0.66992572     0.03060
C1399       C  0.95507930  0.83334293  0.55166591     0.37710
C1400       C  0.03083828  0.88411451  0.69900070     0.37700
C1401       C  0.96908285  0.87875645  0.71794444     0.36130
C1402       C  0.01247152  0.84909774  0.52671333     0.36130
N1403       N  0.95993093  0.88541236  0.75626484    -0.38690
N1404       N  0.01966241  0.84568311  0.48623974    -0.38690
N1405       N  0.04661237  0.89336385  0.72924945    -0.38140
N1406       N  0.94081638  0.82054261  0.52322160    -0.38140
C1407       C  0.82533690  0.00802117  0.73935330    -0.04810
C1408       C  0.79796134  0.99718447  0.72205010    -0.01920
C1409       C  0.79760611  0.97933245  0.67968712     0.03070
C1410       C  0.82448403  0.96841996  0.66076789    -0.04800
C1411       C  0.85126203  0.98140051  0.67393013    -0.01910
C1412       C  0.85162801  0.00155095  0.71302217     0.03060
C1413       C  0.77012213  0.00644191  0.74474009     0.37710
C1414       C  0.87894132  0.97282161  0.64967816     0.37700
C1415       C  0.87891460  0.01642998  0.72296323     0.36130
C1416       C  0.77025210  0.97388183  0.65244617     0.36130
N1417       N  0.90157689  0.02716153  0.72736892    -0.38690
N1418       N  0.74865754  0.96994546  0.62965512    -0.38690
N1419       N  0.90107348  0.96635554  0.63065632    -0.38140
N1420       N  0.74787354  0.01394719  0.76250370    -0.38140
C1421       C  0.95408758  0.10334192  0.81031861    -0.04810
C1422       C  0.96694477  0.13115752  0.81667068    -0.01920
C1423       C  0.99777000  0.13260034  0.82710235     0.03070
C1424       C  0.01589549  0.10639739  0.83062866    -0.04800
C1425       C  0.00356543  0.07877734  0.82237087    -0.01910
C1426       C  0.97285529  0.07708060  0.81325994     0.03060
C1427       C  0.94863852  0.15836271  0.81370566     0.37710
C1428       C  0.02246345  0.05175736  0.82574084     0.37700
C1429       C  0.96071597  0.04791416  0.81123026     0.36130
C1430       C  0.01072762  0.16091777  0.83623302     0.36130
N1431       N  0.95132233  0.02457128  0.81004651    -0.38690
N1432       N  0.02111148  0.18347569  0.84363102    -0.38690
N1433       N  0.03741048  0.03021161  0.82846990    -0.38140
N1434       N  0.93427613  0.18027945  0.81191960    -0.38140
C1435       C  0.52751921  0.85711814  0.82957492    -0.04810
C1436       C  0.51374455  0.86638235  0.78474907    -0.01920
C1437       C  0.48237437  0.86731747  0.77932171     0.03070
C1438       C  0.46465949  0.86039738  0.81984583    -0.04800
C1439       C  0.47885325  0.84755364  0.86225538    -0.01910
C1440       C  0.51014753  0.84472112  0.86590380     0.03060
C1441       C  0.53171820  0.87738838  0.74612107     0.37710
C1442       C  0.46190822  0.84114362  0.90520407     0.37700
C1443       C  0.52457507  0.83252541  0.91035335     0.36130
C1444       C  0.46839206  0.87683436  0.73285203     0.36130
N1445       N  0.53579033  0.82281559  0.94599595    -0.38690
N1446       N  0.45729012  0.88437671  0.69569571    -0.38690
N1447       N  0.44877758  0.83658842  0.94017664    -0.38140
N1448       N  0.54613008  0.88618444  0.71534968    -0.38140
C1449       C  0.73839696  0.85376743  0.71948419    -0.04810
C1450       C  0.72490556  0.82736003  0.73321402    -0.01920
C1451       C  0.69967334  0.82851055  0.76372856     0.03070
C1452       C  0.68566716  0.85587895  0.77807515    -0.04800
C1453       C  0.69532671  0.88162787  0.75618951    -0.01910
C1454       C  0.72256618  0.88096816  0.73058007     0.03060
C1455       C  0.73698019  0.79867694  0.71675948     0.37710
C1456       C  0.67636553  0.90838729  0.75725749     0.37700
C1457       C  0.73550703  0.90868290  0.72113568     0.36130
C1458       C  0.68812958  0.80127855  0.78124712     0.36130
N1459       N  0.74586164  0.93116804  0.71572929    -0.38690
N1460       N  0.67884334  0.77960228  0.79519379    -0.38690
N1461       N  0.66070996  0.92947431  0.75534432    -0.38140
N1462       N  0.74645381  0.77572932  0.70361590    -0.38140
C1463       C  0.00999932  0.87265890  0.14706459    -0.04810
C1464       C  0.99208262  0.89801197  0.13336458    -0.01920
C1465       C  0.96098755  0.89779398  0.13333472     0.03070
C1466       C  0.94713915  0.87064542  0.13237994    -0.04800
C1467       C  0.96443756  0.84469242  0.14499479    -0.01910
C1468       C  0.99568166  0.84597746  0.15463894     0.03060
C1469       C  0.00438671  0.92149825  0.10614620     0.37710
C1470       C  0.95023454  0.81678035  0.14657156     0.37700
C1471       C  0.01306980  0.81972037  0.16972500     0.36130
C1472       C  0.94324778  0.92524529  0.12523927     0.36130
N1473       N  0.02684124  0.79862740  0.18184529    -0.38690
N1474       N  0.92921065  0.94706767  0.11860133    -0.38690
N1475       N  0.93882858  0.79449169  0.14825282    -0.38140
N1476       N  0.01142102  0.93966965  0.07993467    -0.38140
C1477       C  0.86375470  0.86086325  0.79431922    -0.04810
C1478       C  0.87497914  0.88966284  0.79877040    -0.01920
C1479       C  0.88879717  0.89930088  0.84296024     0.03070
C1480       C  0.89139839  0.88072579  0.88401498    -0.04800
C1481       C  0.88412214  0.85085529  0.87815520    -0.01910
C1482       C  0.87011459  0.84094214  0.83370703     0.03060
C1483       C  0.87290496  0.91019401  0.75858198     0.37710
C1484       C  0.88947904  0.83075548  0.91892543     0.37700
C1485       C  0.86046017  0.81089890  0.83024975     0.36130
C1486       C  0.89870555  0.92937614  0.84762277     0.36130
N1487       N  0.85273786  0.78690958  0.82763112    -0.38690
N1488       N  0.90649551  0.95330504  0.85137573    -0.38690
N1489       N  0.89369721  0.81457401  0.95139153    -0.38140
N1490       N  0.87281455  0.92775772  0.72809488    -0.38140
C1491       C  0.86944386  0.00044585  0.97291173    -0.04810
C1492       C  0.89007365  0.02200989  0.98629936    -0.01920
C1493       C  0.88744932  0.05079188  0.96493188     0.03070
C1494       C  0.86286663  0.05942807  0.93343615    -0.04800
C1495       C  0.84002344  0.03958000  0.92735405    -0.01910
C1496       C  0.84507548  0.00963482  0.94116444     0.03060
C1497       C  0.91482204  0.01432864  0.01978267     0.37710
C1498       C  0.81298706  0.04885766  0.90001963     0.37700
C1499       C  0.82927834  0.98788256  0.91287301     0.36130
C1500       C  0.91095503  0.07115418  0.97272262     0.36130
N1501       N  0.81776621  0.97138446  0.88670589    -0.38690
N1502       N  0.92968829  0.08749775  0.97870179    -0.38690
N1503       N  0.79136905  0.05623568  0.87843566    -0.38140
N1504       N  0.93465727  0.00829790  0.04652389    -0.38140
C1505       C  0.71311345  0.92962973  0.96610318    -0.04810
C1506       C  0.73110705  0.93831062  0.00645361    -0.01920
C1507       C  0.75857149  0.94966455  0.99590282     0.03070
C1508       C  0.76922533  0.94328069  0.94837344    -0.04800
C1509       C  0.74869601  0.94490560  0.90870029    -0.01910
C1510       C  0.71931709  0.93932963  0.91860558     0.03060
C1511       C  0.72432978  0.93140368  0.05670010     0.37710
C1512       C  0.75861004  0.94654518  0.85861610     0.37700
C1513       C  0.69598504  0.94158957  0.88111359     0.36130
C1514       C  0.77917722  0.95759147  0.03536389     0.36130
N1515       N  0.67634365  0.94447308  0.85296030    -0.38690
N1516       N  0.79548008  0.96390482  0.06711995    -0.38690
N1517       N  0.76673763  0.94789877  0.81859154    -0.38140
N1518       N  0.72031867  0.92596447  0.09751300    -0.38140
C1519       C  0.50709107  0.11101145  0.59737636    -0.04810
C1520       C  0.48722530  0.12382138  0.56112875    -0.01920
C1521       C  0.45630637  0.12482759  0.56811864     0.03070
C1522       C  0.44510775  0.11398851  0.61221483    -0.04800
C1523       C  0.46527530  0.10587757  0.65151132    -0.01910
C1524       C  0.49614784  0.10383829  0.64385069     0.03060
C1525       C  0.49853557  0.13547696  0.51599042     0.37710
C1526       C  0.45428170  0.09898049  0.69972350     0.37700
C1527       C  0.51624587  0.09235740  0.68272470     0.36130
C1528       C  0.43621122  0.13521765  0.52847282     0.36130
N1529       N  0.53223850  0.08316101  0.71374616    -0.38690
N1530       N  0.42022598  0.14374598  0.49694883    -0.38690
N1531       N  0.44580860  0.09361947  0.73841261    -0.38140
N1532       N  0.50754388  0.14480593  0.48004155    -0.38140
C1533       C  0.66448075  0.10449391  0.70361880    -0.04810
C1534       C  0.66970641  0.12398445  0.74406565    -0.01920
C1535       C  0.69918883  0.12827427  0.76269974     0.03070
C1536       C  0.72393080  0.11509391  0.73819432    -0.04800
C1537       C  0.71819027  0.09505763  0.69919933    -0.01910
C1538       C  0.68897030  0.08662864  0.68786027     0.03060
C1539       C  0.64457612  0.13908423  0.76709166     0.37710
C1540       C  0.74057360  0.08940469  0.66300980     0.37700
C1541       C  0.68400506  0.06135593  0.65587736     0.36130
C1542       C  0.70405671  0.14744587  0.80504326     0.36130
N1543       N  0.67994658  0.04089430  0.63098741    -0.38690
N1544       N  0.70792661  0.16273408  0.83896741    -0.38690
N1545       N  0.75736759  0.08755673  0.63159877    -0.38140
N1546       N  0.62472201  0.15076237  0.78689800    -0.38140
C1547       C  0.97466237  0.09256447  0.34588715    -0.04810
C1548       C  0.98816478  0.11976075  0.34091003    -0.01920
C1549       C  0.01753214  0.12033540  0.32365176     0.03070
C1550       C  0.03411275  0.09347786  0.31347289    -0.04800
C1551       C  0.02014129  0.06619241  0.31949549    -0.01910
C1552       C  0.99050377  0.06595844  0.33416503     0.03060
C1553       C  0.97256636  0.14697083  0.35651939     0.37710
C1554       C  0.03634629  0.03779485  0.31403159     0.37700
C1555       C  0.97631552  0.03794511  0.33840209     0.36130
C1556       C  0.03044544  0.14864887  0.31680344     0.36130
N1557       N  0.96496834  0.01571486  0.34179894    -0.38690
N1558       N  0.04061266  0.17132196  0.31140303    -0.38690
N1559       N  0.04901267  0.01502739  0.31000596    -0.38140
N1560       N  0.96045005  0.16871007  0.36970725    -0.38140
C1561       C  0.87541336  0.08265553  0.55883345    -0.04810
C1562       C  0.87803329  0.11279825  0.57234609    -0.01920
C1563       C  0.86280174  0.12535752  0.61417058     0.03070
C1564       C  0.84302299  0.10843907  0.64132785    -0.04800
C1565       C  0.84054912  0.07830372  0.62590048    -0.01910
C1566       C  0.85809788  0.06539393  0.58833455     0.03060
C1567       C  0.89540022  0.13119372  0.54205839     0.37710
C1568       C  0.81776228  0.06024270  0.64349174     0.37700
C1569       C  0.85678491  0.03393831  0.57740138     0.36130
C1570       C  0.86673568  0.15603549  0.62735837     0.36130
N1571       N  0.85570806  0.00914087  0.56719622    -0.38690
N1572       N  0.87000710  0.18059953  0.63752501    -0.38690
N1573       N  0.79930189  0.04482455  0.65357215    -0.38140
N1574       N  0.90925810  0.14586153  0.51776243    -0.38140
C1575       C  0.87125160  0.96729535  0.45500918    -0.04810
C1576       C  0.84440939  0.95835292  0.47552169    -0.01920
C1577       C  0.84186376  0.92903476  0.49343752     0.03070
C1578       C  0.86663311  0.90856758  0.49482017    -0.04800
C1579       C  0.89211944  0.91631796  0.46908864    -0.01910
C1580       C  0.89450045  0.94523550  0.44974023     0.03060
C1581       C  0.82068935  0.98017570  0.48512494     0.37710
C1582       C  0.91725304  0.89508521  0.46626904     0.37700
C1583       C  0.92159166  0.95248184  0.42597173     0.36130
C1584       C  0.81448143  0.92079237  0.51519723     0.36130
N1585       N  0.94330440  0.95819013  0.40721109    -0.38690
N1586       N  0.79263682  0.91419914  0.53258504    -0.38690
N1587       N  0.93755439  0.87847253  0.46348020    -0.38140
N1588       N  0.80204896  0.99744033  0.49554415    -0.38140
C1589       C  0.76837757  0.07811211  0.45915699    -0.04810
C1590       C  0.76561306  0.10377655  0.48918113    -0.01920
C1591       C  0.74281050  0.10638669  0.52279516     0.03070
C1592       C  0.72601849  0.08162221  0.53097678    -0.04800
C1593       C  0.73379426  0.05401889  0.50902293    -0.01910
C1594       C  0.75240842  0.05314398  0.46890399     0.03060
C1595       C  0.78675914  0.12682734  0.48787963     0.37710
C1596       C  0.72150635  0.02711247  0.52637933     0.37700
C1597       C  0.75431395  0.02725346  0.43663687     0.36130
C1598       C  0.73601877  0.13477524  0.54673016     0.36130
N1599       N  0.75567122  0.00677323  0.41056592    -0.38690
N1600       N  0.73065657  0.15747176  0.56552950    -0.38690
N1601       N  0.71189125  0.00563506  0.54047904    -0.38140
N1602       N  0.80343596  0.14542342  0.48939392    -0.38140
C1603       C  0.58680758  0.87418448  0.04932255    -0.04810
C1604       C  0.60064881  0.84567552  0.05539909    -0.01920
C1605       C  0.61085097  0.83590995  0.10275680     0.03070
C1606       C  0.60616972  0.85437399  0.14451732    -0.04800
C1607       C  0.58518756  0.87896924  0.13894093    -0.01910
C1608       C  0.57534707  0.88843518  0.09127853     0.03060
C1609       C  0.60030023  0.82487008  0.01472749     0.37710
C1610       C  0.57142435  0.89345387  0.18091616     0.37700
C1611       C  0.55240060  0.91189019  0.08490986     0.36130
C1612       C  0.62715703  0.80757215  0.10792024     0.36130
N1613       N  0.53395747  0.93046570  0.07975971    -0.38690
N1614       N  0.64020072  0.78496686  0.11195993    -0.38690
N1615       N  0.55845137  0.90544130  0.21228289    -0.38140
N1616       N  0.59873061  0.80709419  0.98390243    -0.38140
C1617       C  0.73028079  0.86331738  0.19852252    -0.04810
C1618       C  0.72707980  0.85990627  0.14690173    -0.01920
C1619       C  0.75149359  0.86187937  0.11572501     0.03070
C1620       C  0.78021340  0.86941539  0.13469515    -0.04800
C1621       C  0.78340715  0.87347287  0.18663255    -0.01910
C1622       C  0.75868209  0.87036334  0.21823979     0.03060
C1623       C  0.69784287  0.85635242  0.12446128     0.37710
C1624       C  0.81182866  0.88146641  0.20755830     0.37700
C1625       C  0.76252129  0.87427884  0.27114329     0.36130
C1626       C  0.74616217  0.85554003  0.06338442     0.36130
N1627       N  0.76557482  0.87743553  0.31345517    -0.38690
N1628       N  0.74150273  0.85028391  0.02199823    -0.38690
N1629       N  0.83456950  0.88788814  0.22424350    -0.38140
N1630       N  0.67497513  0.85422357  0.10470067    -0.38140
C1631       C  0.45974757  0.87766417  0.35622527    -0.04810
C1632       C  0.47570100  0.85084068  0.34613164    -0.01920
C1633       C  0.50713998  0.84970063  0.34627259     0.03070
C1634       C  0.52302671  0.87552482  0.35760013    -0.04800
C1635       C  0.50640986  0.90238980  0.36854391    -0.01910
C1636       C  0.47518044  0.90345646  0.36638720     0.03060
C1637       C  0.45979699  0.82402829  0.33819151     0.37710
C1638       C  0.52079853  0.92927275  0.38346280     0.37700
C1639       C  0.45868425  0.93142396  0.37549053     0.36130
C1640       C  0.52262306  0.82151462  0.33578067     0.36130
N1641       N  0.44566311  0.95369261  0.38286357    -0.38690
N1642       N  0.53466256  0.79884994  0.32752307    -0.38690
N1643       N  0.53206763  0.95073607  0.39551155    -0.38140
N1644       N  0.44725230  0.80253807  0.33218995    -0.38140
C1645       C  0.63434302  0.92634551  0.43058898    -0.04810
C1646       C  0.65525902  0.94857434  0.42603544    -0.01920
C1647       C  0.65137466  0.97653170  0.45051789     0.03070
C1648       C  0.62691476  0.98287072  0.48126816    -0.04800
C1649       C  0.60776876  0.95961461  0.48985511    -0.01910
C1650       C  0.61166250  0.93161234  0.46529347     0.03060
C1651       C  0.67912156  0.94380050  0.39143868     0.37710
C1652       C  0.58312075  0.96487420  0.52260205     0.37700
C1653       C  0.59048004  0.90909594  0.47227614     0.36130
C1654       C  0.67062265  0.99997738  0.43924280     0.36130
N1655       N  0.57356993  0.89110894  0.47786015    -0.38690
N1656       N  0.68570570  0.01890700  0.42986471    -0.38690
N1657       N  0.56336880  0.96909568  0.54862170    -0.38140
N1658       N  0.69801804  0.94010587  0.36358727    -0.38140
C1659       C  0.63755248  0.11912036  0.30731834    -0.04810
C1660       C  0.61548515  0.09749128  0.31051338    -0.01920
C1661       C  0.60396392  0.08985787  0.35654867     0.03070
C1662       C  0.61374388  0.10345580  0.40034245    -0.04800
C1663       C  0.63354537  0.12681640  0.39691391    -0.01910
C1664       C  0.64494823  0.13472606  0.35087300     0.03060
C1665       C  0.60245354  0.08310445  0.26810475     0.37710
C1666       C  0.64280285  0.14340714  0.43995486     0.37700
C1667       C  0.66516899  0.15866263  0.34861404     0.36130
C1668       C  0.58288080  0.06660425  0.35923151     0.36130
N1669       N  0.68110776  0.17784952  0.34676095    -0.38690
N1670       N  0.56611489  0.04815510  0.36135460    -0.38690
N1671       N  0.65160591  0.15827031  0.47155661    -0.38140
N1672       N  0.58917454  0.07064489  0.23795351    -0.38140
C1673       C  0.81746734  0.10764391  0.26146589    -0.04810
C1674       C  0.80948804  0.13297094  0.23266918    -0.01920
C1675       C  0.78055602  0.13714553  0.21056359     0.03070
C1676       C  0.75887008  0.11609828  0.21701867    -0.04800
C1677       C  0.76781448  0.08958692  0.24229869    -0.01910
C1678       C  0.79711921  0.08500748  0.26256173     0.03060
C1679       C  0.83054137  0.15593150  0.22894496     0.37710
C1680       C  0.74612419  0.06839565  0.25358160     0.37700
C1681       C  0.80525621  0.05825162  0.28999530     0.36130
C1682       C  0.77287288  0.16366718  0.18249708     0.36130
N1683       N  0.81170363  0.03695722  0.31193895    -0.38690
N1684       N  0.76677979  0.18487123  0.16011986    -0.38690
N1685       N  0.72953749  0.05121517  0.26484060    -0.38140
N1686       N  0.84717908  0.17439555  0.22561676    -0.38140
C1687       C  0.67864854  0.01572909  0.22945089    -0.04810
C1688       C  0.66521158  0.01108495  0.27416615    -0.01920
C1689       C  0.64425705  0.98956677  0.27469590     0.03070
C1690       C  0.64260413  0.96949857  0.23420878    -0.04800
C1691       C  0.66260493  0.97037366  0.19512265    -0.01910
C1692       C  0.68297694  0.99248353  0.19566112     0.03060
C1693       C  0.66672607  0.03360128  0.31256626     0.37710
C1694       C  0.66152011  0.94887616  0.15494766     0.37700
C1695       C  0.70359142  0.99518868  0.15605604     0.36130
C1696       C  0.62430299  0.98866588  0.31579250     0.36130
N1697       N  0.72018225  0.99753915  0.12464927    -0.38690
N1698       N  0.60811660  0.98839864  0.34820996    -0.38690
N1699       N  0.65971953  0.93142057  0.12354236    -0.38140
N1700       N  0.66813695  0.05202911  0.34242575    -0.38140
C1701       C  0.53398812  0.11476246  0.10618217    -0.04810
C1702       C  0.52307614  0.12152261  0.05819190    -0.01920
C1703       C  0.49218299  0.12230088  0.04741688     0.03070
C1704       C  0.47195547  0.11502566  0.08419271    -0.04800
C1705       C  0.48291894  0.11011672  0.13305914    -0.01910
C1706       C  0.51374110  0.11048589  0.14406360     0.03060
C1707       C  0.54379403  0.12644643  0.01941438     0.37710
C1708       C  0.46288677  0.10282979  0.17164163     0.37700
C1709       C  0.52446268  0.10643406  0.19466203     0.36130
C1710       C  0.48133475  0.13053994  0.99822940     0.36130
N1711       N  0.53214782  0.10365637  0.23557228    -0.38690
N1712       N  0.47271259  0.13717825  0.95900938    -0.38690
N1713       N  0.44698392  0.09692059  0.20245628    -0.38140
N1714       N  0.56042112  0.13020649  0.98856804    -0.38140
C1715       C  0.61967478  0.05088369  0.03193355    -0.04810
C1716       C  0.60617017  0.02571581  0.05215584    -0.01920
C1717       C  0.60685592  0.99828259  0.02757877     0.03070
C1718       C  0.61557944  0.99553346  0.97868000    -0.04800
C1719       C  0.62698275  0.02058344  0.95589483    -0.01910
C1720       C  0.62974960  0.04792012  0.98288988     0.03060
C1721       C  0.59229438  0.02604029  0.09997519     0.37710
C1722       C  0.63697309  0.01783890  0.90565317     0.37700
C1723       C  0.64403216  0.07232984  0.96113946     0.36130
C1724       C  0.60236209  0.97183118  0.05570790     0.36130
N1725       N  0.65546332  0.09188891  0.94380862    -0.38690
N1726       N  0.60012406  0.95128583  0.07992636    -0.38690
N1727       N  0.64501127  0.01563102  0.86547632    -0.38140
N1728       N  0.58056891  0.02368851  0.13716948    -0.38140
C1729       C  0.61574485  0.26281797  0.61630406    -0.04810
C1730       C  0.60765497  0.25483227  0.56706558    -0.01920
C1731       C  0.59966424  0.22560607  0.55620368     0.03070
C1732       C  0.59840653  0.20484652  0.59442490    -0.04800
C1733       C  0.59951140  0.21473688  0.64359133    -0.01910
C1734       C  0.61013291  0.24279178  0.65490234     0.03060
C1735       C  0.60975672  0.27551797  0.52697378     0.37710
C1736       C  0.59180523  0.19505298  0.68259749     0.37700
C1737       C  0.61756086  0.24922638  0.70624178     0.36130
C1738       C  0.59394055  0.21622905  0.50554370     0.36130
N1739       N  0.62438609  0.25288533  0.74730283    -0.38690
N1740       N  0.58914660  0.20873075  0.46518581    -0.38690
N1741       N  0.58485658  0.17942321  0.71323633    -0.38140
N1742       N  0.61124150  0.29201330  0.49488272    -0.38140
C1743       C  0.52986245  0.36004050  0.62842526    -0.04810
C1744       C  0.50924989  0.34959452  0.66145185    -0.01920
C1745       C  0.47859745  0.34979632  0.64786547     0.03070
C1746       C  0.46822610  0.36249027  0.60244149    -0.04800
C1747       C  0.48971654  0.37266927  0.56947950    -0.01910
C1748       C  0.52023038  0.36907278  0.58110362     0.03060
C1749       C  0.51976357  0.33831271  0.70906201     0.37710
C1750       C  0.48122540  0.38892426  0.52479433     0.37700
C1751       C  0.54195045  0.37477632  0.54411152     0.36130
C1752       C  0.45809439  0.33685682  0.68065167     0.36130
N1753       N  0.55912651  0.37892310  0.51429569    -0.38690
N1754       N  0.44180191  0.32631832  0.70676131    -0.38690
N1755       N  0.47487101  0.40220077  0.48939929    -0.38140
N1756       N  0.52824345  0.32915136  0.74693031    -0.38140
C1757       C  0.62933185  0.76960647  0.89540235    -0.04810
C1758       C  0.60842803  0.75999533  0.85886158    -0.01920
C1759       C  0.60494479  0.72957186  0.85050391     0.03070
C1760       C  0.62273595  0.70825785  0.87680440    -0.04800
C1761       C  0.64040162  0.71733816  0.91728025    -0.01910
C1762       C  0.64337572  0.74785628  0.92724158     0.03060
C1763       C  0.59166067  0.78070635  0.82677419     0.37710
C1764       C  0.65744220  0.69520229  0.94607283     0.37700
C1765       C  0.66127065  0.75640588  0.96996947     0.36130
C1766       C  0.58553122  0.72004085  0.81026763     0.36130
N1767       N  0.67552738  0.76310199  0.00416384    -0.38690
N1768       N  0.57039332  0.71275929  0.77760252    -0.38690
N1769       N  0.67103670  0.67750437  0.96896976    -0.38140
N1770       N  0.57814562  0.79679922  0.80071561    -0.38140
C1771       C  0.65326586  0.52466707  0.66849799    -0.04810
C1772       C  0.67808743  0.50563510  0.65815307    -0.01920
C1773       C  0.67348315  0.47555344  0.65282848     0.03070
C1774       C  0.64701218  0.46546919  0.67150412    -0.04800
C1775       C  0.62105682  0.48453607  0.66884511    -0.01910
C1776       C  0.62459798  0.51450182  0.66028639     0.03060
C1777       C  0.70828341  0.51439154  0.66615835     0.37710
C1778       C  0.59193331  0.47493601  0.68091552     0.37700
C1779       C  0.59912195  0.53545272  0.65721480     0.36130
C1780       C  0.69675173  0.45537489  0.63435667     0.36130
N1781       N  0.57876999  0.55210963  0.65467578    -0.38690
N1782       N  0.71526280  0.43957571  0.61860324    -0.38690
N1783       N  0.56867731  0.46759064  0.69112732    -0.38140
N1784       N  0.73287797  0.51965390  0.67360016    -0.38140
C1785       C  0.53104860  0.60514578  0.81775857    -0.04810
C1786       C  0.50880734  0.62744291  0.80651926    -0.01920
C1787       C  0.47888894  0.62403313  0.81976112     0.03070
C1788       C  0.47103713  0.59830952  0.84463028    -0.04800
C1789       C  0.49309799  0.57589187  0.85484239    -0.01910
C1790       C  0.52262907  0.57929336  0.84158685     0.03060
C1791       C  0.51613003  0.65354547  0.78008454     0.37710
C1792       C  0.48523777  0.54835806  0.87738548     0.37700
C1793       C  0.54369198  0.55493083  0.85166069     0.36130
C1794       C  0.45643397  0.64717486  0.80791342     0.36130
N1795       N  0.55813354  0.53382157  0.86084341    -0.38690
N1796       N  0.43883941  0.66581863  0.79773985    -0.38690
N1797       N  0.47905582  0.52649167  0.89533714    -0.38140
N1798       N  0.52071903  0.67476685  0.75880844    -0.38140
C1799       C  0.50725882  0.38254638  0.10221184    -0.04810
C1800       C  0.48779932  0.40779251  0.09587581    -0.01920
C1801       C  0.45781564  0.40696056  0.10833840     0.03070
C1802       C  0.44686556  0.38123433  0.12884842    -0.04800
C1803       C  0.46630994  0.35593609  0.13559965    -0.01910
C1804       C  0.49652359  0.35664344  0.12249901     0.03060
C1805       C  0.49863377  0.43492926  0.07639635     0.37710
C1806       C  0.45536127  0.32915370  0.15559894     0.37700
C1807       C  0.51620465  0.33042924  0.12806657     0.36130
C1808       C  0.43778469  0.43224647  0.09710339     0.36130
N1809       N  0.53192713  0.30951211  0.13249402    -0.38690
N1810       N  0.42183219  0.45232613  0.08760480    -0.38690
N1811       N  0.44694998  0.30751365  0.17125388    -0.38140
N1812       N  0.50725000  0.45650536  0.06081853    -0.38140
C1813       C  0.61144482  0.39225460  0.89034288    -0.04810
C1814       C  0.63541539  0.40632068  0.86863192    -0.01920
C1815       C  0.65174378  0.39280123  0.83033705     0.03070
C1816       C  0.64469027  0.36462908  0.81051259    -0.04800
C1817       C  0.61913844  0.35165529  0.82907737    -0.01910
C1818       C  0.60316564  0.36496486  0.86935397     0.03060
C1819       C  0.64590203  0.43432531  0.88732300     0.37710
C1820       C  0.60782555  0.32558883  0.80546567     0.37700
C1821       C  0.57881977  0.34996521  0.89003816     0.36130
C1822       C  0.67677946  0.40874155  0.81338336     0.36130
N1823       N  0.55941826  0.33789221  0.90653120    -0.38690
N1824       N  0.69635283  0.42238106  0.80160284    -0.38690
N1825       N  0.59754659  0.30523306  0.78685834    -0.38140
N1826       N  0.65660429  0.45559595  0.90160048    -0.38140
C1827       C  0.61042207  0.49895409  0.96960301    -0.04810
C1828       C  0.62290027  0.52575646  0.98616473    -0.01920
C1829       C  0.62802813  0.54882531  0.95154810     0.03070
C1830       C  0.62544314  0.54324473  0.89982961    -0.04800
C1831       C  0.61887921  0.51394210  0.88522079    -0.01910
C1832       C  0.60574367  0.49528340  0.91817308     0.03060
C1833       C  0.62829166  0.53044133  0.03851521     0.37710
C1834       C  0.62442575  0.50247379  0.83563988     0.37700
C1835       C  0.58700776  0.47273945  0.89742605     0.36130
C1836       C  0.63579160  0.57780363  0.96906800     0.36130
N1837       N  0.57150379  0.45573950  0.87958736    -0.38690
N1838       N  0.64199850  0.60101909  0.98307666    -0.38690
N1839       N  0.62869040  0.49202506  0.79708215    -0.38140
N1840       N  0.63265174  0.53415770  0.08042747    -0.38140
C1841       C  0.62746132  0.22064196  0.10371827    -0.04810
C1842       C  0.64688343  0.23986513  0.12845690    -0.01920
C1843       C  0.64029418  0.27035216  0.12910188     0.03070
C1844       C  0.61848195  0.28299531  0.09618972    -0.04800
C1845       C  0.59997321  0.26402047  0.06857085    -0.01910
C1846       C  0.60369045  0.23286326  0.07401527     0.03060
C1847       C  0.67410263  0.22849028  0.15340107     0.37710
C1848       C  0.57712782  0.27629772  0.03484829     0.37700
C1849       C  0.58274057  0.21367105  0.05013608     0.36130
C1850       C  0.65439355  0.28815366  0.16714167     0.36130
N1851       N  0.56587225  0.19841965  0.03122645    -0.38690
N1852       N  0.66516227  0.30143410  0.19909764    -0.38690
N1853       N  0.55881809  0.28604592  0.00797581    -0.38140
N1854       N  0.69588356  0.21964983  0.17303188    -0.38140
C1855       C  0.97040623  0.36176728  0.86740664    -0.04810
C1856       C  0.97745421  0.35968026  0.81651852    -0.01920
C1857       C  0.00712293  0.35396678  0.80243424     0.03070
C1858       C  0.03029070  0.35127489  0.83856236    -0.04800
C1859       C  0.02292484  0.34880334  0.88868647    -0.01910
C1860       C  0.99318347  0.35432416  0.90313745     0.03060
C1861       C  0.95481997  0.36521186  0.77799204     0.37710
C1862       C  0.04606911  0.34220719  0.92593542     0.37700
C1863       C  0.98641577  0.35262353  0.95504231     0.36130
C1864       C  0.01402543  0.35145675  0.75037138     0.36130
N1865       N  0.98142057  0.35124950  0.99662728    -0.38690
N1866       N  0.01954874  0.34933499  0.70892661    -0.38690
N1867       N  0.06452656  0.33697163  0.95564169    -0.38140
N1868       N  0.93688468  0.36957468  0.74709181    -0.38140
C1869       C  0.75112423  0.41051546  0.88495078    -0.04810
C1870       C  0.74072627  0.43576193  0.91119015    -0.01920
C1871       C  0.71783011  0.43304727  0.94432638     0.03070
C1872       C  0.70410091  0.40568341  0.94668115    -0.04800
C1873       C  0.70990117  0.38335594  0.91035068    -0.01910
C1874       C  0.73294257  0.38639862  0.87810647     0.03060
C1875       C  0.75585673  0.46318166  0.90784309     0.37710
C1876       C  0.69335837  0.35652486  0.90699542     0.37700
C1877       C  0.73949627  0.36322436  0.84167649     0.36130
C1878       C  0.71047546  0.45737446  0.97803134     0.36130
N1879       N  0.74467414  0.34445054  0.81330206    -0.38690
N1880       N  0.70461525  0.47687754  0.00469924    -0.38690
N1881       N  0.68050147  0.33503125  0.90450719    -0.38140
N1882       N  0.76787565  0.48506085  0.90489113    -0.38140
C1883       C  0.86790744  0.27347010  0.87862440    -0.04810
C1884       C  0.88015466  0.26346225  0.83335554    -0.01920
C1885       C  0.87658854  0.23412289  0.81708847     0.03070
C1886       C  0.86272633  0.21402678  0.84739275    -0.04800
C1887       C  0.85490201  0.22279617  0.89581868    -0.01910
C1888       C  0.85733274  0.25249250  0.91127376     0.03060
C1889       C  0.89531059  0.28341449  0.80216716     0.37710
C1890       C  0.84218193  0.20194024  0.92848900     0.37700
C1891       C  0.84849749  0.26158002  0.96056777     0.36130
C1892       C  0.88653261  0.22493770  0.76844246     0.36130
N1893       N  0.84151272  0.26883002  0.99990668    -0.38690
N1894       N  0.89455255  0.21780526  0.72962803    -0.38690
N1895       N  0.83204018  0.18529938  0.95453913    -0.38140
N1896       N  0.90767111  0.29921868  0.77752420    -0.38140
C1897       C  0.82059824  0.36715970  0.74800989    -0.04810
C1898       C  0.81201659  0.34247076  0.71920725    -0.01920
C1899       C  0.78288688  0.34141107  0.69795563     0.03070
C1900       C  0.76177957  0.36550552  0.70346974    -0.04800
C1901       C  0.77235641  0.39224725  0.72419380    -0.01910
C1902       C  0.80160298  0.39301477  0.74595486     0.03060
C1903       C  0.83248354  0.31677973  0.71534173     0.37710
C1904       C  0.75294991  0.41868627  0.72645306     0.37700
C1905       C  0.81116868  0.41971059  0.77047344     0.36130
C1906       C  0.77446538  0.31490736  0.67150961     0.36130
N1907       N  0.81879583  0.44098425  0.79017549    -0.38690
N1908       N  0.76780030  0.29370745  0.65051054    -0.38690
N1909       N  0.73829149  0.44040443  0.72863930    -0.38140
N1910       N  0.84854622  0.29611173  0.71177307    -0.38140
C1911       C  0.86796439  0.25696034  0.35878559    -0.04810
C1912       C  0.85867872  0.24840938  0.40559674    -0.01920
C1913       C  0.86175604  0.21843152  0.41959373     0.03070
C1914       C  0.87293180  0.19654328  0.38587996    -0.04800
C1915       C  0.88568055  0.20590388  0.34167289    -0.01910
C1916       C  0.88329861  0.23602528  0.32850685     0.03060
C1917       C  0.84365567  0.26993809  0.43773642     0.37710
C1918       C  0.89970954  0.18472930  0.30779367     0.37700
C1919       C  0.89594428  0.24543369  0.28286993     0.36130
C1920       C  0.85269310  0.21020538  0.46841507     0.36130
N1921       N  0.90607511  0.25293013  0.24654691    -0.38690
N1922       N  0.84545395  0.20375114  0.50736977    -0.38690
N1923       N  0.91098086  0.16797373  0.28063382    -0.38140
N1924       N  0.83151886  0.28708050  0.46320350    -0.38140
C1925       C  0.85396214  0.38204441  0.05564285    -0.04810
C1926       C  0.87363812  0.36491458  0.08775897    -0.01920
C1927       C  0.86327847  0.35182444  0.13161953     0.03070
C1928       C  0.83330452  0.35628979  0.14566437    -0.04800
C1929       C  0.81378217  0.37324867  0.11392410    -0.01910
C1930       C  0.82338728  0.38444558  0.06876827     0.03060
C1931       C  0.90479463  0.36061470  0.07653927     0.37710
C1932       C  0.78344459  0.38080157  0.12832769     0.37700
C1933       C  0.80041512  0.39783024  0.03632590     0.36130
C1934       C  0.88408492  0.33535133  0.16409161     0.36130
N1935       N  0.78070578  0.40776519  0.01255082    -0.38690
N1936       N  0.90069962  0.32225400  0.19007186    -0.38690
N1937       N  0.75950819  0.38820640  0.13906904    -0.38140
N1938       N  0.92975886  0.35700750  0.06811512    -0.38140
C1939       C  0.67521744  0.36926615  0.16959980    -0.04810
C1940       C  0.67652818  0.38175786  0.21770116    -0.01920
C1941       C  0.70211104  0.37608652  0.24947191     0.03070
C1942       C  0.72604971  0.35651936  0.23450256    -0.04800
C1943       C  0.72334128  0.34204764  0.18799096    -0.01910
C1944       C  0.69956605  0.34963378  0.15517142     0.03060
C1945       C  0.65256447  0.40201573  0.23315094     0.37710
C1946       C  0.74643479  0.32084669  0.17043692     0.37700
C1947       C  0.70233410  0.33733316  0.10541452     0.36130
C1948       C  0.70370872  0.39046654  0.29748600     0.36130
N1949       N  0.70694782  0.32636921  0.06730067    -0.38690
N1950       N  0.70496844  0.40199882  0.33584942    -0.38690
N1951       N  0.76452704  0.30415973  0.15568360    -0.38140
N1952       N  0.63336870  0.41820870  0.24540571    -0.38140
C1953       C  0.95084630  0.35750411  0.31165326    -0.04810
C1954       C  0.96944644  0.36870583  0.27569713    -0.01920
C1955       C  0.99968570  0.37225194  0.28727427     0.03070
C1956       C  0.01134272  0.36371727  0.33407648    -0.04800
C1957       C  0.99431485  0.34712786  0.36552025    -0.01910
C1958       C  0.96404431  0.34381561  0.35432076     0.03060
C1959       C  0.95741254  0.37718638  0.22727122     0.37710
C1960       C  0.00784763  0.33412892  0.41012970     0.37700
C1961       C  0.94666867  0.32761912  0.38822459     0.36130
C1962       C  0.01810319  0.38651629  0.25251977     0.36130
N1963       N  0.93296708  0.31455597  0.41526921    -0.38690
N1964       N  0.03279290  0.39785764  0.22474384    -0.38690
N1965       N  0.01868667  0.32377502  0.44560248    -0.38140
N1966       N  0.94782133  0.38387991  0.18863696    -0.38140
C1967       C  0.84069655  0.71602360  0.09058439    -0.04810
C1968       C  0.81379168  0.73338545  0.09100011    -0.01920
C1969       C  0.81278941  0.76352615  0.07727554     0.03070
C1970       C  0.83888734  0.77712601  0.06261317    -0.04800
C1971       C  0.86598407  0.75929169  0.06225942    -0.01910
C1972       C  0.86671709  0.72903381  0.07589827     0.03060
C1973       C  0.78679575  0.72005979  0.10583505     0.37710
C1974       C  0.89357392  0.77165015  0.04843276     0.37700
C1975       C  0.89464352  0.71154839  0.07695376     0.36130
C1976       C  0.78469568  0.78033035  0.08099102     0.36130
N1977       N  0.91698659  0.69772000  0.07805155    -0.38690
N1978       N  0.76166079  0.79249700  0.08479994    -0.38690
N1979       N  0.91598205  0.78100785  0.03815072    -0.38140
N1980       N  0.76532278  0.70944861  0.11770940    -0.38140
C1981       C  0.82527426  0.49742105  0.15714272    -0.04810
C1982       C  0.85099282  0.48177218  0.17486419    -0.01920
C1983       C  0.84974137  0.46571874  0.21845248     0.03070
C1984       C  0.82179014  0.46089486  0.23873365    -0.04800
C1985       C  0.79540823  0.47274632  0.21550033    -0.01910
C1986       C  0.79722583  0.49084927  0.17432302     0.03060
C1987       C  0.87932251  0.48492017  0.15154818     0.37710
C1988       C  0.76655666  0.46782965  0.23574066     0.37700
C1989       C  0.77047585  0.50448281  0.15155257     0.36130
C1990       C  0.87756008  0.45628934  0.24310800     0.36130
N1991       N  0.74897561  0.51512133  0.13354549    -0.38690
N1992       N  0.90049616  0.45037119  0.26176780    -0.38690
N1993       N  0.74363083  0.46389411  0.25201070    -0.38140
N1994       N  0.90189441  0.48742089  0.13307383    -0.38140
C1995       C  0.94908235  0.61499835  0.10452312    -0.04810
C1996       C  0.95817801  0.62500766  0.05837995    -0.01920
C1997       C  0.98872380  0.62460853  0.04772961     0.03070
C1998       C  0.01056964  0.61413789  0.08308184    -0.04800
C1999       C  0.00146830  0.60830203  0.13155949    -0.01910
C2000       C  0.97090530  0.60890566  0.14216694     0.03060
C2001       C  0.93623103  0.63468836  0.02092475     0.37710
C2002       C  0.02320479  0.60011267  0.17022402     0.37700
C2003       C  0.96183121  0.60306919  0.19202705     0.36130
C2004       C  0.99740901  0.63498185  0.00001770     0.36130
N2005       N  0.95452558  0.59856329  0.23178078    -0.38690
N2006       N  0.00389196  0.64339389  0.96179893    -0.38690
N2007       N  0.04048217  0.59368140  0.20122956    -0.38140
N2008       N  0.91877005  0.64286363  0.99130145    -0.38140
C2009       C  0.84611424  0.56057711  0.99145833    -0.04810
C2010       C  0.86723878  0.55247034  0.95535931    -0.01920
C2011       C  0.87084120  0.52276762  0.93808423     0.03070
C2012       C  0.85304253  0.50069321  0.95620208    -0.04800
C2013       C  0.82907825  0.50975981  0.98668979    -0.01910
C2014       C  0.82489433  0.53983363  0.00216588     0.03060
C2015       C  0.88660431  0.57456881  0.93839177     0.37710
C2016       C  0.81027775  0.48790860  0.00602148     0.37700
C2017       C  0.80017159  0.54904088  0.03286949     0.36130
C2018       C  0.89354495  0.51476200  0.90276338     0.36130
N2019       N  0.78038647  0.55655450  0.05716859    -0.38690
N2020       N  0.91162375  0.50842005  0.87444295    -0.38690
N2021       N  0.79519875  0.47082694  0.02247390    -0.38140
N2022       N  0.90196819  0.59210652  0.92409034    -0.38140
C2023       C  0.96772763  0.60760392  0.60193703    -0.04810
C2024       C  0.97826194  0.60580566  0.65136183    -0.01920
C2025       C  0.00795992  0.61227527  0.66328637     0.03070
C2026       C  0.02736050  0.61971557  0.62546762    -0.04800
C2027       C  0.01510214  0.62617799  0.57769200    -0.01910
C2028       C  0.98530215  0.62030967  0.56626819     0.03060
C2029       C  0.95931310  0.59539765  0.68919954     0.37710
C2030       C  0.03327896  0.63664893  0.53873840     0.37700
C2031       C  0.97292388  0.62640768  0.51701850     0.36130
C2032       C  0.01877136  0.61035575  0.71423605     0.36130
N2033       N  0.96305451  0.63124466  0.47781530    -0.38690
N2034       N  0.02740507  0.60887989  0.75487489    -0.38690
N2035       N  0.04762173  0.64494466  0.50744039    -0.38140
N2036       N  0.94413618  0.58713209  0.71935874    -0.38140
C2037       C  0.88316736  0.58256549  0.38430630    -0.04810
C2038       C  0.87613249  0.61325997  0.37806325    -0.01920
C2039       C  0.86150546  0.62403876  0.33382521     0.03070
C2040       C  0.85620918  0.60462767  0.29331079    -0.04800
C2041       C  0.86869015  0.57509396  0.29723949    -0.01910
C2042       C  0.88034082  0.56387309  0.34280260     0.03060
C2043       C  0.88468846  0.63389300  0.41646438     0.37710
C2044       C  0.87217436  0.55641388  0.25395657     0.37700
C2045       C  0.88945694  0.53270780  0.34711975     0.36130
C2046       C  0.85133184  0.65487942  0.33085172     0.36130
N2047       N  0.89661569  0.50786188  0.35064870    -0.38690
N2048       N  0.84313647  0.67950621  0.32836664    -0.38690
N2049       N  0.87685943  0.54098842  0.22044743    -0.38140
N2050       N  0.89218280  0.65051131  0.44655940    -0.38140
C2051       C  0.86674455  0.46788842  0.48706762    -0.04810
C2052       C  0.88999466  0.44576470  0.49276179    -0.01920
C2053       C  0.88707752  0.41721994  0.47169048     0.03070
C2054       C  0.86113249  0.41043168  0.44427163    -0.04800
C2055       C  0.83622892  0.43055804  0.44592173    -0.01910
C2056       C  0.83896349  0.45927469  0.46659290     0.03060
C2057       C  0.91725041  0.45238692  0.51947164     0.37710
C2058       C  0.80877059  0.42291366  0.42059444     0.37700
C2059       C  0.81353324  0.48021412  0.46296562     0.36130
C2060       C  0.91191955  0.39553928  0.47398378     0.36130
N2061       N  0.79279464  0.49634698  0.45977511    -0.38690
N2062       N  0.93181652  0.37832467  0.47603117    -0.38690
N2063       N  0.78697068  0.41679798  0.40018634    -0.38140
N2064       N  0.93899819  0.45763284  0.54084401    -0.38140
C2065       C  0.87416650  0.75638662  0.58767235    -0.04810
C2066       C  0.86289441  0.74877013  0.54035573    -0.01920
C2067       C  0.86269318  0.71884283  0.52572149     0.03070
C2068       C  0.87299276  0.69630065  0.55901111    -0.04800
C2069       C  0.88819432  0.70444948  0.60342716    -0.01910
C2070       C  0.88872600  0.73446292  0.61752906     0.03060
C2071       C  0.84916378  0.77139252  0.50823313     0.37710
C2072       C  0.90197597  0.68233008  0.63641513     0.37700
C2073       C  0.90346714  0.74277366  0.66371338     0.36130
C2074       C  0.85105610  0.71152368  0.47674712     0.36130
N2075       N  0.91518360  0.74938185  0.70052944    -0.38690
N2076       N  0.84162916  0.70592774  0.43771482    -0.38690
N2077       N  0.91312292  0.66485996  0.66284053    -0.38140
N2078       N  0.83814589  0.78940549  0.48270410    -0.38140
C2079       C  0.75458191  0.61691644  0.71580281    -0.04810
C2080       C  0.77959716  0.63299025  0.73021483    -0.01920
C2081       C  0.80675850  0.62861145  0.70471927     0.03070
C2082       C  0.80989688  0.60655778  0.66735209    -0.04800
C2083       C  0.78591396  0.58829815  0.65761433    -0.01910
C2084       C  0.75791977  0.59542397  0.67780964     0.03060
C2085       C  0.77700904  0.65492347  0.76946854     0.37710
C2086       C  0.78911486  0.56404135  0.62216252     0.37700
C2087       C  0.73177967  0.58468530  0.65283259     0.36130
C2088       C  0.83099294  0.64777200  0.71496943     0.36130
N2089       N  0.71100595  0.57706912  0.63122939    -0.38690
N2090       N  0.85033785  0.66311569  0.72317870    -0.38690
N2091       N  0.79157075  0.54448857  0.59433680    -0.38140
N2092       N  0.77492391  0.67245462  0.80085354    -0.38140
C2093       C  0.51342294  0.62024301  0.34253284    -0.04810
C2094       C  0.50568912  0.61776258  0.29161648    -0.01920
C2095       C  0.47596143  0.62344987  0.27545627     0.03070
C2096       C  0.45374227  0.63023138  0.31023976    -0.04800
C2097       C  0.46249345  0.63816238  0.35912461    -0.01910
C2098       C  0.49234517  0.63331648  0.37506639     0.03060
C2099       C  0.52750034  0.60729779  0.25615292     0.37710
C2100       C  0.44079886  0.64918067  0.39444862     0.37700
C2101       C  0.50110353  0.64114437  0.42544841     0.36130
C2102       C  0.46789943  0.62086459  0.22329583     0.36130
N2103       N  0.50804592  0.64735841  0.46560502    -0.38690
N2104       N  0.46141923  0.61886718  0.18173422    -0.38690
N2105       N  0.42359013  0.65793166  0.42277435    -0.38140
N2106       N  0.54484483  0.59896643  0.22775934    -0.38140
C2107       C  0.61736262  0.60801997  0.55280753    -0.04810
C2108       C  0.59660022  0.62154077  0.58582603    -0.01920
C2109       C  0.60675351  0.63815317  0.62767984     0.03070
C2110       C  0.63717336  0.64396008  0.63431899    -0.04800
C2111       C  0.65633486  0.63575407  0.59612231    -0.01910
C2112       C  0.64782799  0.61464445  0.56050298     0.03060
C2113       C  0.56533991  0.61587025  0.58018552     0.37710
C2114       C  0.68668342  0.64535610  0.59871510     0.37700
C2115       C  0.67181260  0.59648201  0.53991325     0.36130
C2116       C  0.58628531  0.64790600  0.66536896     0.36130
N2117       N  0.69232547  0.58187383  0.52839663    -0.38690
N2118       N  0.57002319  0.65566544  0.69572742    -0.38690
N2119       N  0.71079032  0.65305149  0.60085559    -0.38140
N2120       N  0.54036165  0.61128846  0.57584126    -0.38140
C2121       C  0.61346571  0.48265166  0.48755950    -0.04810
C2122       C  0.58897972  0.47516453  0.51686983    -0.01920
C2123       C  0.58879929  0.44783940  0.54171685     0.03070
C2124       C  0.61423844  0.42795482  0.54419302    -0.04800
C2125       C  0.63874165  0.43482560  0.51554186    -0.01910
C2126       C  0.63807214  0.46132657  0.48635991     0.03060
C2127       C  0.56405059  0.49613608  0.52600171     0.37710
C2128       C  0.66517898  0.41525628  0.51784071     0.37700
C2129       C  0.66339127  0.46686378  0.45672559     0.36130
C2130       C  0.56243135  0.44163493  0.56900313     0.36130
N2131       N  0.68368210  0.47110892  0.43299890    -0.38690
N2132       N  0.54119781  0.43793703  0.59070503    -0.38690
N2133       N  0.68627515  0.39954144  0.51974184    -0.38140
N2134       N  0.54430568  0.51266674  0.53442840    -0.38140
C2135       C  0.72449639  0.58082724  0.42038589    -0.04810
C2136       C  0.74507918  0.56179915  0.39570875    -0.01920
C2137       C  0.77510652  0.56781233  0.39996833     0.03070
C2138       C  0.78305906  0.59006585  0.43356719    -0.04800
C2139       C  0.76317228  0.61427769  0.43996843    -0.01910
C2140       C  0.73318453  0.60857155  0.43918430     0.03060
C2141       C  0.73551681  0.53674567  0.36649951     0.37710
C2142       C  0.77371139  0.64268257  0.45573684     0.37700
C2143       C  0.71198639  0.63075512  0.45842005     0.36130
C2144       C  0.79768387  0.54925305  0.37602388     0.36130
N2145       N  0.69563829  0.64878069  0.47429783    -0.38690
N2146       N  0.81549492  0.53428818  0.35655903    -0.38690
N2147       N  0.78181071  0.66559960  0.46782420    -0.38140
N2148       N  0.72785739  0.51679767  0.34312977    -0.38140
C2149       C  0.60774377  0.70412619  0.38602729    -0.04810
C2150       C  0.59498719  0.71464742  0.34067177    -0.01920
C2151       C  0.59715882  0.74451260  0.32791881     0.03070
C2152       C  0.61203065  0.76408278  0.36017898    -0.04800
C2153       C  0.62025870  0.75480177  0.40846346    -0.01910
C2154       C  0.61775305  0.72493329  0.42157370     0.03060
C2155       C  0.58149060  0.69471094  0.30512691     0.37710
C2156       C  0.63338134  0.77523690  0.44344111     0.37700
C2157       C  0.62634328  0.71544967  0.47124723     0.36130
C2158       C  0.58507244  0.75478204  0.28040097     0.36130
N2159       N  0.63313887  0.70785633  0.51085718    -0.38690
N2160       N  0.57551813  0.76289310  0.24249027    -0.38690
N2161       N  0.64384860  0.79153922  0.47137095    -0.38140
N2162       N  0.57070538  0.67893091  0.27665890    -0.38140
C2163       C  0.67670516  0.61037897  0.27631092    -0.04810
C2164       C  0.67912062  0.59387878  0.23152985    -0.01920
C2165       C  0.70638885  0.59279527  0.20465376     0.03070
C2166       C  0.73261807  0.60502933  0.22530490    -0.04800
C2167       C  0.73103110  0.61705633  0.27327956    -0.01910
C2168       C  0.70343053  0.62374722  0.29440163     0.03060
C2169       C  0.65310362  0.58022628  0.21115760     0.37710
C2170       C  0.75809833  0.62365038  0.30124145     0.37700
C2171       C  0.70365831  0.64683127  0.33241499     0.36130
C2172       C  0.70691497  0.58035752  0.15520830     0.36130
N2173       N  0.70436623  0.66592271  0.36123914    -0.38690
N2174       N  0.70708146  0.57065942  0.11543871    -0.38690
N2175       N  0.77951344  0.62897463  0.32350514    -0.38140
N2176       N  0.63224497  0.56928891  0.19498108    -0.38140
loop_ 
_geom_bond_atom_site_label_1 
_geom_bond_atom_site_label_2 
_geom_bond_distance 
_geom_bond_site_symmetry_2 
_ccdc_geom_bond_type 
O1           Ni7   1.895       .  S
O1           C22   1.251       .  A
O2          Ni25   1.868       .  S
O2           C11   1.270       .  A
O3           Ni7   1.835       .  S
O3          Ni25   1.835       .  S
O3          Ni19   1.955       .  S
O3           H26   0.958       .  S
C4           O21   1.294       .  A
C4           O13   1.285       .  A
C4         C2121   1.551       .  S
O5          Ni24   1.959       .  S
O5           C11   1.288       .  A
O6          Ni24   1.963       .  S
O6            C8   1.279       .  A
Ni7          O10   1.907       .  S
Ni7          O12   1.893       .  S
C8           O18   1.268       .  A
C8         C2107   1.525       .  S
O9          Ni25   1.967       .  S
O9           C15   1.295       .  A
O10          C15   1.284       .  A
C11        C2093   1.488       .  S
O12          C14   1.226       .  A
O13         Ni24   1.949       .  S
C14          O20   1.292       .  A
C14        C2163   1.544       .  S
C15        C2149   1.493       .  S
H16          O17   0.966       .  S
O17         Ni25   1.916       .  S
O17         Ni19   1.882       .  S
O17         Ni24   1.880       .  S
O18         Ni19   1.938       .  S
Ni19         O23   1.895       .  S
Ni19         O21   1.963       .  S
O20         Ni25   2.061       .  S
C22          O23   1.272       .  A
C22        C2135   1.421       .  S
O27         Ni33   1.862       .  S
O27          C48   1.261       .  A
O28         Ni51   1.887       .  S
O28          C37   1.272       .  A
O29         Ni33   1.883       .  S
O29         Ni51   1.868       .  S
O29         Ni45   1.956       .  S
O29          H52   0.957       .  S
C30          O47   1.271       .  A
C30          O39   1.292       .  A
C30        C2051   1.510       .  S
O31         Ni50   1.945       .  S
O31          C37   1.284       .  A
O32         Ni50   1.956       .  S
O32          C34   1.269       .  A
Ni33         O36   1.898       .  S
Ni33         O38   1.890       .  S
C34          O44   1.262       .  A
C34        C2037   1.507       .  S
O35         Ni51   1.922       .  S
O35          C41   1.275       .  A
O36          C41   1.272       .  A
C37        C2023   1.480       .  S
O38          C40   1.265       .  A
O39         Ni50   1.983       .  S
C40          O46   1.288       .  A
C40        C2082   1.490       .  S
C41        C2068   1.491       .  S
H42          O43   0.967       .  S
O43         Ni51   1.909       .  S
O43         Ni45   1.877       .  S
O43         Ni50   1.899       .  S
O44         Ni45   1.932       .  S
Ni45         O49   1.866       .  S
Ni45         O47   1.897       .  S
O46         Ni51   1.973       .  S
C48          O49   1.245       .  A
C48        C2138   1.456       .  S
O53         Ni59   1.925       .  S
O53          C74   1.271       .  A
O54         Ni77   1.911       .  S
O54          C63   1.281       .  A
O55         Ni59   1.870       .  S
O55         Ni77   1.866       .  S
O55         Ni71   1.924       .  S
O55          H78   0.961       .  S
C56          O73   1.282       .  A
C56          O65   1.291       .  A
C56        C2166   1.522       .  S
O57         Ni76   1.951       .  S
O57          C63   1.285       .  A
O58         Ni76   1.965       .  S
O58          C60   1.279       .  A
Ni59         O62   1.912       .  S
Ni59         O64   1.892       .  S
C60          O70   1.269       .  A
C60        C2040   1.527       .  S
O61         Ni77   1.953       .  S
O61          C67   1.287       .  A
O62          C67   1.279       .  A
C63        C1967   1.494       .  S
O64          C66   1.258       .  A
O65         Ni76   1.956       .  S
C66          O72   1.289       .  A
C66        C2009   1.497   1_554  S
C67        C1995   1.494       .  S
H68          O69   0.967       .  S
O69         Ni77   1.913       .  S
O69         Ni71   1.880       .  S
O69         Ni76   1.882       .  S
O70         Ni71   1.940       .  S
Ni71         O75   1.862       .  S
Ni71         O73   1.941       .  S
O72         Ni77   1.990       .  S
C74          O75   1.266       .  A
C74        C1981   1.450       .  S
O79         Ni85   1.897       .  S
O79         C100   1.265       .  A
O80        Ni103   1.893       .  S
O80          C89   1.272       .  A
O81         Ni85   1.863       .  S
O81        Ni103   1.865       .  S
O81         Ni97   1.936       .  S
O81         H104   0.962       .  S
C82          O99   1.281       .  A
C82          O91   1.285       .  A
C82        C1942   1.513       .  S
O83        Ni102   1.945       .  S
O83          C89   1.281       .  A
O84        Ni102   1.968       .  S
O84          C86   1.277       .  A
Ni85         O88   1.906       .  S
Ni85         O90   1.888       .  S
C86          O96   1.262       .  A
C86        C1928   1.518       .  S
O87        Ni103   1.921       .  S
O87          C93   1.276       .  A
O88          C93   1.275       .  A
C89        C1911   1.483       .  S
O90          C92   1.262       .  A
O91        Ni102   1.940       .  S
C92          O98   1.285       .  A
C92        C2054   1.482       .  S
C93        C1953   1.485       .  S
H94          O95   0.967       .  S
O95        Ni103   1.898       .  S
O95         Ni97   1.887       .  S
O95        Ni102   1.884       .  S
O96         Ni97   1.920       .  S
Ni97        O101   1.874       .  S
Ni97         O99   1.924       .  S
O98        Ni103   1.965       .  S
C100        O101   1.261       .  A
C100       C1984   1.457       .  S
O105       Ni111   1.909       .  S
O105        C126   1.263       .  A
O106       Ni129   1.875       .  S
O106        C115   1.274       .  A
O107       Ni111   1.858       .  S
O107       Ni129   1.848       .  S
O107       Ni123   1.916       .  S
O107        H130   0.962       .  S
C108        O125   1.278       .  A
C108        O117   1.294       .  A
C108       C2012   1.509       .  S
O109       Ni128   1.977       .  S
O109        C115   1.293       .  A
O110       Ni128   1.964       .  S
O110        C112   1.279   1_556  A
Ni111       O114   1.911       .  S
Ni111       O116   1.886       .  S
C112        O122   1.271   1_554  A
C112       C1925   1.541       .  S
O113       Ni129   1.945       .  S
O113        C119   1.287       .  A
O114        C119   1.282       .  A
C115       C1855   1.505       .  S
O116        C118   1.251       .  A
O117       Ni128   1.987       .  S
C118        O124   1.289       .  A
C118       C1897   1.508       .  S
C119       C1883   1.490       .  S
H120        O121   0.967       .  S
O121       Ni129   1.909       .  S
O121       Ni123   1.871       .  S
O121       Ni128   1.884       .  S
O122       Ni123   1.942       .  S
Ni123       O127   1.869       .  S
Ni123       O125   1.914       .  S
O124       Ni129   2.006       .  S
C126        O127   1.268       .  A
C126       C1869   1.452       .  S
O131       Ni137   1.865   1_556  S
O131        C152   1.259       .  A
O132       Ni155   1.901       .  S
O132        C141   1.277       .  A
O133       Ni137   1.848       .  S
O133       Ni155   1.891       .  S
O133       Ni149   1.975       .  S
O133        H156   0.963   1_554  S
C134        O151   1.289       .  A
C134        O143   1.291   1_554  A
C134       C1827   1.517   1_554  S
O135       Ni154   1.941       .  S
O135        C141   1.281       .  A
O136       Ni154   1.982   1_556  S
O136        C138   1.274       .  A
Ni137       O140   1.926       .  S
Ni137       O142   1.881       .  S
C138        O148   1.246       .  A
C138       C1813   1.518       .  S
O139       Ni155   1.922       .  S
O139        C145   1.261       .  A
O140        C145   1.260       .  A
C141       C1799   1.484       .  S
O142        C144   1.251       .  A
O143       Ni154   1.965   1_556  S
C144        O150   1.307       .  A
C144       C1939   1.515       .  S
C145       C1844   1.489       .  S
H146        O147   0.967       .  S
O147       Ni155   1.898       .  S
O147       Ni149   1.864       .  S
O147       Ni154   1.903       .  S
O148       Ni149   1.877   1_556  S
Ni149       O153   1.888       .  S
Ni149       O151   1.944       .  S
O150       Ni155   2.047       .  S
C152        O153   1.261   1_556  A
C152       C1872   1.457       .  S
O157       Ni163   1.890       .  S
O157        C178   1.261       .  A
O158       Ni181   1.916       .  S
O158        C167   1.283       .  A
O159       Ni163   1.857       .  S
O159       Ni181   1.884       .  S
O159       Ni175   1.941       .  S
O159        H182   0.961       .  S
C160        O177   1.275       .  A
C160        O169   1.289       .  A
C160       C2079   1.506       .  S
O161       Ni180   1.921       .  S
O161        C167   1.279       .  A
O162       Ni180   1.956       .  S
O162        C164   1.266       .  A
Ni163       O166   1.909       .  S
Ni163       O168   1.881       .  S
C164        O174   1.255       .  A
C164       C2110   1.495       .  S
O165       Ni181   1.973       .  S
O165        C171   1.290       .  A
O166        C171   1.274       .  A
C167       C1760   1.476       .  S
O168        C170   1.266       .  A
O169       Ni180   1.984       .  S
C170        O176   1.292       .  A
C170       C1830   1.528       .  S
C171       C1785   1.496       .  S
H172        O173   0.967       .  S
O173       Ni181   1.933       .  S
O173       Ni175   1.881       .  S
O173       Ni180   1.906       .  S
O174       Ni175   1.902       .  S
Ni175       O179   1.881       .  S
Ni175       O177   1.903       .  S
O176       Ni181   1.997       .  S
C178        O179   1.245       .  A
C178       C1771   1.449       .  S
O183       Ni189   1.872       .  S
O183        C204   1.250       .  A
O184       Ni207   1.885       .  S
O184        C193   1.280       .  A
O185       Ni189   1.879       .  S
O185       Ni207   1.865       .  S
O185       Ni201   2.003       .  S
O185        H208   0.956       .  S
C186        O203   1.286       .  A
C186        O195   1.297       .  A
C186       C1900   1.528       .  S
O187       Ni206   1.951       .  S
O187        C193   1.287       .  A
O188       Ni206   1.978       .  S
O188        C190   1.272       .  A
Ni189       O192   1.903       .  S
Ni189       O194   1.892       .  S
C190        O200   1.251       .  A
C190       C1816   1.526       .  S
O191       Ni207   1.917       .  S
O191        C197   1.263       .  A
O192        C197   1.263       .  A
C193       C1729   1.500       .  S
O194        C196   1.274       .  A
O195       Ni206   1.989       .  S
C196        O202   1.313       .  A
C196       C2124   1.524       .  S
C197       C1743   1.476       .  S
H198        O199   0.967       .  S
O199       Ni207   1.909       .  S
O199       Ni201   1.857       .  S
O199       Ni206   1.896       .  S
O200       Ni201   1.901       .  S
Ni201       O205   1.885       .  S
Ni201       O203   1.936       .  S
O202       Ni207   2.028       .  S
C204        O205   1.252       .  A
C204       C1774   1.468       .  S
O209       Ni215   1.928       .  S
O209        C230   1.276       .  A
O210       Ni233   1.836       .  S
O210        C219   1.236       .  A
O211       Ni215   1.896       .  S
O211       Ni233   1.840       .  S
O211       Ni227   1.910       .  S
O211        H234   0.967       .  S
C212        O229   1.262       .  A
C212        O221   1.267       .  A
C212       C1701   1.483       .  S
O213       Ni232   1.899       .  S
O213        C219   1.266       .  A
O214       Ni232   1.870       .  S
O214        C216   1.245       .  A
Ni215       O218   1.987       .  S
Ni215       O220   1.948       .  S
C216        O226   1.308       .  A
C216       C1715   1.524       .  S
O217       Ni233   1.911       .  S
O217        C223   1.275       .  A
O218        C223   1.293       .  A
C219       C1687   1.428       .  S
O220        C222   1.268       .  A
O221       Ni232   1.951       .  S
C222        O228   1.265       .  A
C222       C1659   1.517       .  S
C223       C1676   1.517       .  S
H224        O225   0.950       .  S
O225       Ni233   1.967       .  S
O225       Ni227   1.881       .  S
O225       Ni232   1.849       .  S
O226       Ni227   2.058       .  S
Ni227       O231   1.913       .  S
Ni227       O229   1.907       .  S
O228       Ni233   1.946       .  S
C230        O231   1.281       .  A
C230       C1841   1.485       .  S
O235       Ni241   1.943       .  S
O235        C256   1.285       .  A
O236       Ni259   1.832       .  S
O236        C245   1.253       .  A
O237       Ni241   1.899       .  S
O237       Ni259   1.858       .  S
O237       Ni253   1.904       .  S
O237        H260   0.967       .  S
C238        O255   1.261       .  A
C238        O247   1.255       .  A
C238       C1634   1.505       .  S
O239       Ni258   1.893       .  S
O239        C245   1.262       .  A
O240       Ni258   1.873       .  S
O240        C242   1.267       .  A
Ni241       O244   1.971       .  S
Ni241       O246   1.953       .  S
C242        O252   1.313       .  A
C242       C1645   1.511       .  S
O243       Ni259   1.936       .  S
O243        C249   1.278       .  A
O244        C249   1.287       .  A
C245       C1690   1.421       .  S
O246        C248   1.275       .  A
O247       Ni258   1.899       .  S
C248        O254   1.268       .  A
C248       C1606   1.509       .  S
C249       C1617   1.519       .  S
H250        O251   0.952       .  S
O251       Ni259   1.938       .  S
O251       Ni253   1.866       .  S
O251       Ni258   1.883       .  S
O252       Ni253   2.041       .  S
Ni253       O257   1.891       .  S
Ni253       O255   1.921       .  S
O254       Ni259   1.937       .  S
C256        O257   1.276       .  A
C256       C2152   1.485       .  S
O261       Ni267   1.952       .  S
O261        C282   1.285       .  A
O262       Ni285   1.855       .  S
O262        C271   1.256       .  A
O263       Ni267   1.897       .  S
O263       Ni285   1.868       .  S
O263       Ni279   1.921       .  S
O263        H286   0.967       .  S
C264        O281   1.282       .  A
C264        O273   1.275       .  A
C264       C1914   1.498       .  S
O265       Ni284   1.897       .  S
O265        C271   1.264       .  A
O266       Ni284   1.887       .  S
O266        C268   1.260       .  A
Ni267       O270   1.993       .  S
Ni267       O272   1.958       .  S
C268        O278   1.293       .  A
C268       C1673   1.496       .  S
O269       Ni285   1.930       .  S
O269        C275   1.282   1_545  A
O270        C275   1.295   1_545  A
C271       C1589   1.431       .  S
O272        C274   1.270       .  A
O273       Ni284   1.908       .  S
C274        O280   1.264       .  A
C274       C1561   1.511       .  S
C275       C1575   1.531       .  S
H276        O277   0.962       .  S
O277       Ni285   1.945       .  S
O277       Ni279   1.861       .  S
O277       Ni284   1.873       .  S
O278       Ni279   1.988       .  S
Ni279       O283   1.894       .  S
Ni279       O281   1.942       .  S
O280       Ni285   1.914       .  S
C282        O283   1.276       .  A
C282       C1547   1.478       .  S
O287       Ni293   1.949       .  S
O287        C308   1.286       .  A
O288       Ni311   1.848       .  S
O288        C297   1.262       .  A
O289       Ni293   1.890       .  S
O289       Ni311   1.873       .  S
O289       Ni305   1.918       .  S
O289        H312   0.967       .  S
C290        O307   1.283       .  A
C290        O299   1.271       .  A
C290       C1732   1.477       .  S
O291       Ni310   1.908       .  S
O291        C297   1.269       .  A
O292       Ni310   1.905       .  S
O292        C294   1.262       .  A
Ni293       O296   1.973       .  S
Ni293       O298   1.954       .  S
C294        O304   1.293       .  A
C294       C1533   1.502       .  S
O295       Ni311   1.941       .  S
O295        C301   1.286       .  A
O296        C301   1.289       .  A
C297       C1592   1.443       .  S
O298        C300   1.275       .  A
O299       Ni310   1.901       .  S
C300        O306   1.259       .  A
C300       C1662   1.499       .  S
C301       C1648   1.525   1_545  S
H302        O303   0.957       .  S
O303       Ni311   1.918       .  S
O303       Ni305   1.852       .  S
O303       Ni310   1.868       .  S
O304       Ni305   1.992       .  S
Ni305       O309   1.889       .  S
Ni305       O307   1.950       .  S
O306       Ni311   1.914       .  S
C308        O309   1.277       .  A
C308       C1519   1.488       .  S
O313       Ni319   1.920       .  S
O313        C334   1.266       .  A
O314       Ni337   1.851       .  S
O314        C323   1.234       .  A
O315       Ni319   1.931       .  S
O315       Ni337   1.881   1_554  S
O315       Ni331   1.925       .  S
O315        H338   0.966       .  S
C316        O333   1.273       .  A
C316        O325   1.283       .  A
C316       C1970   1.519       .  S
O317       Ni336   1.933       .  S
O317        C323   1.271       .  A
O318       Ni336   1.881   1_554  S
O318        C320   1.248       .  A
Ni319       O322   2.000   1_554  S
Ni319       O324   1.934   1_554  S
C320        O330   1.291       .  A
C320       C1620   1.533       .  S
O321       Ni337   1.905       .  S
O321        C327   1.272       .  A
O322        C327   1.294       .  A
C323       C1508   1.458       .  S
O324        C326   1.255       .  A
O325       Ni336   1.962   1_554  S
C326        O332   1.249       .  A
C326       C1480   1.482       .  S
C327       C1491   1.525   1_565  S
H328        O329   0.962       .  S
O329       Ni337   1.936       .  S
O329       Ni331   1.949   1_556  S
O329       Ni336   1.901       .  S
O330       Ni331   2.022       .  S
Ni331       O335   1.945       .  S
Ni331       O333   1.910       .  S
O332       Ni337   1.895       .  S
C334        O335   1.278       .  A
C334       C1466   1.488       .  S
O339       Ni345   1.907       .  S
O339        C360   1.271       .  A
O340       Ni363   1.865       .  S
O340        C349   1.245       .  A
O341       Ni345   1.920       .  S
O341       Ni363   1.902       .  S
O341       Ni357   1.933       .  S
O341        H364   0.966       .  S
C342        O359   1.278       .  A
C342        O351   1.283       .  A
C342       C1757   1.510       .  S
O343       Ni362   1.937       .  S
O343        C349   1.278       .  A
O344       Ni362   1.901       .  S
O344        C346   1.269       .  A
Ni345       O348   1.959       .  S
Ni345       O350   1.937       .  S
C346        O356   1.291       .  A
C346       C1452   1.512       .  S
O347       Ni363   1.918       .  S
O347        C353   1.265       .  A
O348        C353   1.282       .  A
C349       C1505   1.450       .  S
O350        C352   1.266   1_556  A
O351       Ni362   1.933       .  S
C352        O358   1.269   1_554  A
C352       C1603   1.498       .  S
C353       C1718   1.503       .  S
H354        O355   0.961       .  S
O355       Ni363   1.895       .  S
O355       Ni357   1.881       .  S
O355       Ni362   1.885       .  S
O356       Ni357   1.988       .  S
Ni357       O361   1.922       .  S
Ni357       O359   1.916       .  S
O358       Ni363   1.937       .  S
C360        O361   1.277       .  A
C360       C1435   1.480       .  S
O365       Ni371   1.962       .  S
O365        C386   1.290       .  A
O366       Ni389   1.854       .  S
O366        C375   1.258       .  A
O367       Ni371   1.895       .  S
O367       Ni389   1.864       .  S
O367       Ni383   1.921       .  S
O367        H390   0.967       .  S
C368        O385   1.285       .  A
C368        O377   1.272       .  A
C368       C1421   1.495       .  S
O369       Ni388   1.904       .  S
O369        C375   1.267       .  A
O370       Ni388   1.897       .  S
O370        C372   1.261       .  A
Ni371       O374   1.997       .  S
Ni371       O376   1.969       .  S
C372        O382   1.291       .  A
C372       C1494   1.496       .  S
O373       Ni389   1.913       .  S
O373        C379   1.277       .  A
O374        C379   1.295       .  A
C375       C1407   1.440       .  S
O376        C378   1.275       .  A
O377       Ni388   1.906       .  S
C378        O384   1.266       .  A
C378       C1564   1.541       .  S
C379       C1536   1.512       .  S
H380        O381   0.960       .  S
O381       Ni389   1.932       .  S
O381       Ni383   1.860       .  S
O381       Ni388   1.859       .  S
O382       Ni383   1.985       .  S
Ni383       O387   1.885       .  S
Ni383       O385   1.956       .  S
O384       Ni389   1.938       .  S
C386        O387   1.277       .  A
C386       C1886   1.484       .  S
O391       Ni397   1.946       .  S
O391        C412   1.284       .  A
O392       Ni415   1.877       .  S
O392        C401   1.273       .  A
O393       Ni397   1.894       .  S
O393       Ni415   1.875       .  S
O393       Ni409   1.929       .  S
O393        H416   0.967       .  S
C394        O411   1.291       .  A
C394        O403   1.285       .  A
C394       C1393   1.495       .  S
O395       Ni414   1.908       .  S
O395        C401   1.262       .  A
O396       Ni414   1.880       .  S
O396        C398   1.251       .  A
Ni397       O400   1.964       .  S
Ni397       O402   1.940       .  S
C398        O408   1.295       .  A
C398       C1578   1.509       .  S
O399       Ni415   1.947       .  S
O399        C405   1.288       .  A
O400        C405   1.286       .  A
C401       C1410   1.435       .  S
O402        C404   1.274       .  A
O403       Ni414   1.918       .  S
C404        O410   1.273       .  A
C404       C1477   1.511       .  S
C405       C1449   1.535       .  S
H406        O407   0.957       .  S
O407       Ni415   1.932       .  S
O407       Ni409   1.822       .  S
O407       Ni414   1.845       .  S
O408       Ni409   2.014       .  S
Ni409       O413   1.877       .  S
Ni409       O411   1.949       .  S
O410       Ni415   1.947       .  S
C412        O413   1.272       .  A
C412       C2065   1.474       .  S
O417       Ni423   1.909       .  S
O417        C438   1.267       .  A
O418       Ni441   1.923       .  S
O418        C427   1.284       .  A
O419       Ni423   1.882       .  S
O419       Ni441   1.868       .  S
O419       Ni435   1.923       .  S
O419        H442   0.959       .  S
C420        O437   1.277       .  A
C420        O429   1.289       .  A
C420       C1354   1.502       .  S
O421       Ni440   1.942       .  S
O421        C427   1.281       .  A
O422       Ni440   1.940       .  S
O422        C424   1.272       .  A
Ni423       O426   1.901       .  S
Ni423       O428   1.895       .  S
C424        O434   1.265       .  A
C424       C1337   1.505       .  S
O425       Ni441   1.949       .  S
O425        C431   1.286       .  A
O426        C431   1.274       .  A
C427       C1326   1.496       .  S
O428        C430   1.263       .  A
O429       Ni440   1.970       .  S
C430        O436   1.292       .  A
C430       C1379   1.501       .  S
C431       C1522   1.488       .  S
H432        O433   0.967       .  S
O433       Ni441   1.914       .  S
O433       Ni435   1.873       .  S
O433       Ni440   1.889       .  S
O434       Ni435   1.934       .  S
Ni435       O439   1.852       .  S
Ni435       O437   1.911       .  S
O436       Ni441   1.988       .  S
C438        O439   1.259       .  A
C438       C1365   1.454       .  S
O443       Ni449   1.917       .  S
O443        C464   1.270       .  A
O444       Ni467   1.921       .  S
O444        C453   1.281       .  A
O445       Ni449   1.877       .  S
O445       Ni467   1.860       .  S
O445       Ni461   1.929       .  S
O445        H468   0.961       .  S
C446        O463   1.287       .  A
C446        O455   1.288       .  A
C446       C1295   1.506       .  S
O447       Ni466   1.918       .  S
O447        C453   1.269       .  A
O448       Ni466   1.921       .  S
O448        C450   1.264       .  A
Ni449       O452   1.911       .  S
Ni449       O454   1.896       .  S
C450        O460   1.262       .  A
C450       C1281   1.493       .  S
O451       Ni467   1.953       .  S
O451        C457   1.287       .  A
O452        C457   1.277       .  A
C453       C1267   1.489       .  S
O454        C456   1.262       .  A
O455       Ni466   1.958       .  S
C456        O462   1.292       .  A
C456       C1312   1.501       .  S
C457       C1438   1.498       .  S
H458        O459   0.967       .  S
O459       Ni467   1.924       .  S
O459       Ni461   1.858       .  S
O459       Ni466   1.881       .  S
O460       Ni461   1.920       .  S
Ni461       O465   1.837       .  S
Ni461       O463   1.943       .  S
O462       Ni467   1.989       .  S
C464        O465   1.261       .  A
C464       C1368   1.449       .  S
O469       Ni475   1.904       .  S
O469        C490   1.260       .  A
O470       Ni493   1.916       .  S
O470        C479   1.287       .  A
O471       Ni475   1.867       .  S
O471       Ni493   1.867       .  S
O471       Ni487   1.933       .  S
O471        H494   0.960       .  S
C472        O489   1.270       .  A
C472        O481   1.289       .  A
C472       C1225   1.508   1_565  S
O473       Ni492   1.927       .  S
O473        C479   1.282       .  A
O474       Ni492   1.948       .  S
O474        C476   1.268       .  A
Ni475       O478   1.910       .  S
Ni475       O480   1.902       .  S
C476        O486   1.264       .  A
C476       C1211   1.498       .  S
O477       Ni493   1.960       .  S
O477        C483   1.286       .  A
O478        C483   1.274       .  A
C479       C1396   1.483       .  S
O480        C482   1.267       .  A
O481       Ni492   1.993       .  S
C482        O488   1.302       .  A
C482       C1298   1.526       .  S
C483       C1253   1.502       .  S
H484        O485   0.967       .  S
O485       Ni493   1.933       .  S
O485       Ni487   1.858       .  S
O485       Ni492   1.907       .  S
O486       Ni487   1.929       .  S
Ni487       O491   1.827       .  S
Ni487       O489   1.899       .  S
O488       Ni493   2.008       .  S
C490        O491   1.240       .  A
C490       C1242   1.431       .  S
O495       Ni501   1.911       .  S
O495        C516   1.269       .  A
O496       Ni519   1.912       .  S
O496        C505   1.280       .  A
O497       Ni501   1.862       .  S
O497       Ni519   1.856       .  S
O497       Ni513   1.915       .  S
O497        H520   0.962       .  S
C498        O515   1.288       .  A
C498        O507   1.287       .  A
C498       C1382   1.511   1_565  S
O499       Ni518   1.923       .  S
O499        C505   1.275       .  A
O500       Ni518   1.921       .  S
O500        C502   1.268       .  A
Ni501       O504   1.904       .  S
Ni501       O506   1.890       .  S
C502        O512   1.266       .  A
C502       C1284   1.494       .  S
O503       Ni519   1.962       .  S
O503        C509   1.291       .  A
O504        C509   1.278       .  A
C505       C1631   1.476       .  S
O506        C508   1.256       .  A
O507       Ni518   1.954       .  S
C508        O514   1.292       .  A
C508       C1197   1.511       .  S
C509       C1183   1.494       .  S
H510        O511   0.967       .  S
O511       Ni519   1.924       .  S
O511       Ni513   1.869       .  S
O511       Ni518   1.877       .  S
O512       Ni513   1.929       .  S
Ni513       O517   1.866       .  S
Ni513       O515   1.941       .  S
O514       Ni519   2.003       .  S
C516        O517   1.271       .  A
C516       C1239   1.459       .  S
O521       Ni527   1.863       .  S
O521        C542   1.262       .  A
O522       Ni545   1.891       .  S
O522        C531   1.273       .  A
O523       Ni527   1.887       .  S
O523       Ni545   1.880       .  S
O523       Ni539   1.978       .  S
O523        H546   0.961       .  S
C524        O541   1.271       .  A
C524        O533   1.289       .  A
C524       C1155   1.524       .  S
O525       Ni544   1.933       .  S
O525        C531   1.280       .  A
O526       Ni544   1.935       .  S
O526        C528   1.266       .  A
Ni527       O530   1.899       .  S
Ni527       O532   1.884       .  S
C528        O538   1.266       .  A
C528       C1144   1.496       .  S
O529       Ni545   1.945       .  S
O529        C535   1.279       .  A
O530        C535   1.268       .  A
C531       C1127   1.476       .  S
O532        C534   1.268       .  A
O533       Ni544   1.986       .  S
C534        O540   1.287       .  A
C534       C1228   1.485       .  S
C535       C1550   1.504       .  S
H536        O537   0.966       .  S
O537       Ni545   1.938       .  S
O537       Ni539   1.889       .  S
O537       Ni544   1.909       .  S
O538       Ni539   1.935       .  S
Ni539       O543   1.889       .  S
Ni539       O541   1.912       .  S
O540       Ni545   1.963       .  S
C542        O543   1.240       .  A
C542       C1169   1.474       .  S
O547       Ni553   1.906       .  S
O547        C568   1.254       .  A
O548       Ni571   1.902       .  S
O548        C557   1.283       .  A
O549       Ni553   1.851       .  S
O549       Ni571   1.867       .  S
O549       Ni565   1.947       .  S
O549        H572   0.961       .  S
C550        O567   1.283       .  A
C550        O559   1.294       .  A
C550       C1200   1.523       .  S
O551       Ni570   1.953       .  S
O551        C557   1.288       .  A
O552       Ni570   1.961       .  S
O552        C554   1.275       .  A
Ni553       O556   1.912       .  S
Ni553       O558   1.893       .  S
C554        O564   1.262       .  A
C554       C1214   1.528       .  S
O555       Ni571   1.998       .  S
O555        C561   1.300       .  A
O556        C561   1.282       .  A
C557       C1099   1.491       .  S
O558        C560   1.241       .  A
O559       Ni570   1.980       .  S
C560        O566   1.290       .  A
C560       C1113   1.537       .  S
C561       C1463   1.505       .  S
H562        O563   0.967       .  S
O563       Ni571   1.924       .  S
O563       Ni565   1.872       .  S
O563       Ni570   1.881       .  S
O564       Ni565   1.927       .  S
Ni565       O569   1.874       .  S
Ni565       O567   1.929       .  S
O566       Ni571   2.034       .  S
C568        O569   1.258       .  A
C568       C1172   1.426       .  S
O573       Ni579   1.912       .  S
O573        C594   1.266       .  A
O574       Ni597   1.902       .  S
O574        C583   1.273       .  A
O575       Ni579   1.860       .  S
O575       Ni597   1.848       .  S
O575       Ni591   1.930       .  S
O575        H598   0.958       .  S
C576        O593   1.278       .  A
C576        O585   1.289       .  A
C576       C1116   1.512   1_545  S
O577       Ni596   1.931       .  S
O577        C583   1.275       .  A
O578       Ni596   1.950       .  S
O578        C580   1.272       .  A
Ni579       O582   1.909       .  S
Ni579       O584   1.883       .  S
C580        O590   1.271       .  A
C580       C1141   1.523   1_556  S
O581       Ni597   1.943       .  S
O581        C587   1.287       .  A
O582        C587   1.281       .  A
C583       C1424   1.470       .  S
O584        C586   1.259       .  A
O585       Ni596   1.951       .  S
C586        O592   1.287       .  A
C586       C1351   1.487       .  S
C587       C1088   1.494       .  S
H588        O589   0.966       .  S
O589       Ni597   1.922       .  S
O589       Ni591   1.882       .  S
O589       Ni596   1.890       .  S
O590       Ni591   1.949       .  S
Ni591       O595   1.867       .  S
Ni591       O593   1.931       .  S
O592       Ni597   1.979       .  S
C594        O595   1.262       .  A
C594       C1071   1.454       .  S
O599       Ni605   1.918       .  S
O599        C620   1.268       .  A
O600       Ni623   1.907       .  S
O600        C609   1.283       .  A
O601       Ni605   1.861       .  S
O601       Ni623   1.852       .  S
O601       Ni617   1.916       .  S
O601        H624   0.957       .  S
C602        O619   1.278       .  A
C602        O611   1.288   1_554  A
C602       C1309   1.511   1_544  S
O603       Ni622   1.946       .  S
O603        C609   1.284       .  A
O604       Ni622   1.945   1_556  S
O604        C606   1.274       .  A
Ni605       O608   1.906       .  S
Ni605       O610   1.887       .  S
C606        O616   1.268       .  A
C606       C1340   1.509       .  S
O607       Ni623   1.973       .  S
O607        C613   1.291       .  A
O608        C613   1.275       .  A
C609       C1704   1.496       .  S
O610        C612   1.259       .  A
O611       Ni622   1.972   1_556  S
C612        O618   1.293       .  A
C612       C1158   1.499       .  S
C613       C1057   1.499       .  S
H614        O615   0.967       .  S
O615       Ni623   1.928       .  S
O615       Ni617   1.873       .  S
O615       Ni622   1.890       .  S
O616       Ni617   1.941   1_556  S
Ni617       O621   1.848       .  S
Ni617       O619   1.920       .  S
O618       Ni623   1.993       .  S
C620        O621   1.260       .  A
C620       C1074   1.437       .  S
O625       Ni631   1.950       .  S
O625        C646   1.287       .  A
O626       Ni649   1.820       .  S
O626        C635   1.256       .  A
O627       Ni631   1.892       .  S
O627       Ni649   1.862       .  S
O627       Ni643   1.913       .  S
O627        H650   0.967       .  S
C628        O645   1.276       .  A
C628        O637   1.271       .  A
C628       C1130   1.481       .  S
O629       Ni648   1.911       .  S
O629        C635   1.268       .  A
O630       Ni648   1.887       .  S
O630        C632   1.266       .  A
Ni631       O634   1.978       .  S
Ni631       O636   1.967       .  S
C632        O642   1.293       .  A
C632       C1043   1.499       .  S
O633       Ni649   1.951       .  S
O633        C639   1.282       .  A
O634        C639   1.293       .  A
C635       C1029   1.424       .  S
O636        C638   1.276       .  A
O637       Ni648   1.907       .  S
C638        O644   1.267       .  A
C638       C1001   1.524       .  S
C639       C1015   1.534       .  S
H640        O641   0.956       .  S
O641       Ni649   1.919       .  S
O641       Ni643   1.850       .  S
O641       Ni648   1.872       .  S
O642       Ni643   1.978       .  S
Ni643       O647   1.871       .  S
Ni643       O645   1.933       .  S
O644       Ni649   1.944       .  S
C646        O647   1.270       .  A
C646       C1956   1.470       .  S
O651       Ni657   1.924       .  S
O651        C672   1.269       .  A
O652       Ni675   1.858       .  S
O652        C661   1.242       .  A
O653       Ni657   1.891       .  S
O653       Ni675   1.868       .  S
O653       Ni669   1.948       .  S
O653        H676   0.967       .  S
C654        O671   1.296       .  A
C654        O663   1.286       .  A
C654       C1323   1.501       .  S
O655       Ni674   1.892       .  S
O655        C661   1.259       .  A
O656       Ni674   1.857       .  S
O656        C658   1.253       .  A
Ni657       O660   1.986       .  S
Ni657       O662   1.935       .  S
C658        O668   1.304       .  A
C658        C987   1.508       .  S
O659       Ni675   1.912       .  S
O659        C665   1.272       .  A
O660        C665   1.295       .  A
C661       C1032   1.446       .  S
O662        C664   1.265       .  A
O663       Ni674   1.917       .  S
C664        O670   1.269       .  A
C664        C959   1.523       .  S
C665        C976   1.544       .  S
H666        O667   0.958       .  S
O667       Ni675   1.956       .  S
O667       Ni669   1.844       .  S
O667       Ni674   1.830       .  S
O668       Ni669   2.023       .  S
Ni669       O673   1.934       .  S
Ni669       O671   1.970       .  S
O670       Ni675   1.955       .  S
C672        O673   1.284       .  A
C672       C1746   1.506       .  S
O677       Ni683   1.977       .  S
O677        C698   1.294       .  A
O678       Ni701   1.875       .  S
O678        C687   1.276       .  A
O679       Ni683   1.880       .  S
O679       Ni701   1.868       .  S
O679       Ni695   1.911       .  S
O679        H702   0.967       .  S
C680        O697   1.286       .  A
C680        O689   1.278       .  A
C680       C2096   1.488       .  S
O681       Ni700   1.888       .  S
O681        C687   1.266       .  A
O682       Ni700   1.887       .  S
O682        C684   1.244       .  A
Ni683       O686   1.978       .  S
Ni683       O688   1.967       .  S
C684        O694   1.296       .  A
C684        C973   1.548       .  S
O685       Ni701   1.962       .  S
O685        C691   1.295       .  A
O686        C691   1.294       .  A
C687        C945   1.438       .  S
O688        C690   1.280       .  A
O689       Ni700   1.907       .  S
C690        O696   1.265       .  A
C690        C920   1.537       .  S
C691        C934   1.538       .  S
H692        O693   0.955       .  S
O693       Ni701   1.934       .  S
O693       Ni695   1.848       .  S
O693       Ni700   1.848       .  S
O694       Ni695   2.038       .  S
Ni695       O699   1.874       .  S
Ni695       O697   1.949       .  S
O696       Ni701   1.935       .  S
C698        O699   1.275       .  A
C698       C1186   1.492       .  S
O703       Ni709   1.924       .  S
O703        C724   1.271       .  A
O704       Ni727   1.876       .  S
O704        C713   1.241       .  A
O705       Ni709   1.905       .  S
O705       Ni727   1.871       .  S
O705       Ni721   1.923       .  S
O705        H728   0.967       .  S
C706        O723   1.279       .  A
C706        O715   1.275       .  A
C706       C1802   1.489       .  S
O707       Ni726   1.887       .  S
O707        C713   1.262       .  A
O708       Ni726   1.878       .  S
O708        C710   1.265       .  A
Ni709       O712   1.992       .  S
Ni709       O714   1.942       .  S
C710        O720   1.297       .  A
C710        C903   1.505       .  S
O711       Ni727   1.895       .  S
O711        C717   1.271       .  A
O712        C717   1.296       .  A
C713        C948   1.445       .  S
O714        C716   1.261       .  A
O715       Ni726   1.917       .  S
C716        O722   1.257       .  A
C716        C962   1.501       .  S
C717       C1046   1.523       .  S
H718        O719   0.960       .  S
O719       Ni727   1.966       .  S
O719       Ni721   1.898       .  S
O719       Ni726   1.881       .  S
O720       Ni721   1.995       .  S
Ni721       O725   1.931       .  S
Ni721       O723   1.938       .  S
O722       Ni727   1.927       .  S
C724        O725   1.281       .  A
C724       C1060   1.481       .  S
O729       Ni735   1.958       .  S
O729        C750   1.289       .  A
O730       Ni753   1.894       .  S
O730        C739   1.268       .  A
O731       Ni735   1.881       .  S
O731       Ni753   1.872       .  S
O731       Ni747   1.907       .  S
O731        H754   0.967       .  S
C732        O749   1.292       .  A
C732        O741   1.284       .  A
C732       C1102   1.498       .  S
O733       Ni752   1.895       .  S
O733        C739   1.250       .  A
O734       Ni752   1.887       .  S
O734        C736   1.249       .  A
Ni735       O738   1.970   1_554  S
Ni735       O740   1.961   1_554  S
C736        O746   1.293       .  A
C736        C931   1.530       .  S
O737       Ni753   1.934       .  S
O737        C743   1.284   1_554  A
O738        C743   1.292       .  A
C739        C892   1.457       .  S
O740        C742   1.276       .  A
O741       Ni752   1.913       .  S
C742        O748   1.271       .  A
C742        C861   1.540       .  S
C743        C875   1.527       .  S
H744        O745   0.964       .  S
O745       Ni753   1.938       .  S
O745       Ni747   1.852       .  S
O745       Ni752   1.855       .  S
O746       Ni747   2.032       .  S
Ni747       O751   1.897       .  S
Ni747       O749   1.958       .  S
O748       Ni753   1.938   1_556  S
C750        O751   1.281       .  A
C750       C1998   1.502       .  S
O755       Ni761   1.941       .  S
O755        C776   1.286       .  A
O756       Ni779   1.843       .  S
O756        C765   1.248       .  A
O757       Ni761   1.936       .  S
O757       Ni779   1.860       .  S
O757       Ni773   1.922       .  S
O757        H780   0.966       .  S
C758        O775   1.270       .  A
C758        O767   1.274       .  A
C758       C1270   1.472       .  S
O759       Ni778   1.895       .  S
O759        C765   1.266       .  A
O760       Ni778   1.879       .  S
O760        C762   1.247       .  A
Ni761       O764   1.923       .  S
Ni761       O766   1.999       .  S
C762        O772   1.293       .  A
C762        C850   1.514       .  S
O763       Ni779   1.990       .  S
O763        C769   1.294       .  A
O764        C769   1.278       .  A
C765        C889   1.410   1_556  S
O766        C768   1.267   1_556  A
O767       Ni778   1.935       .  S
C768        O774   1.227   1_554  A
C768        C917   1.506       .  S
C769        C906   1.546       .  S
H770        O771   0.967       .  S
O771       Ni779   1.894       .  S
O771       Ni773   1.887       .  S
O771       Ni778   1.845       .  S
O772       Ni773   2.026       .  S
Ni773       O777   1.898       .  S
Ni773       O775   1.899       .  S
O774       Ni779   1.874       .  S
C776        O777   1.279       .  A
C776       C1788   1.489       .  S
O781       Ni787   1.930       .  S
O781        C802   1.279       .  A
O782       Ni805   1.857       .  S
O782        C791   1.253       .  A
O783       Ni787   1.882       .  S
O783       Ni805   1.858       .  S
O783       Ni799   1.919       .  S
O783        H806   0.967       .  S
C784        O801   1.295       .  A
C784        O793   1.286       .  A
C784       C2026   1.494       .  S
O785       Ni804   1.902       .  S
O785        C791   1.254       .  A
O786       Ni804   1.889       .  S
O786        C788   1.233       .  A
Ni787       O790   1.952       .  S
Ni787       O792   1.977       .  S
C788        O798   1.302       .  A
C788       C1018   1.557       .  S
O789       Ni805   1.929       .  S
O789        C795   1.285       .  A
O790        C795   1.289       .  A
C791        C833   1.407       .  S
O792        C794   1.275       .  A
O793       Ni804   1.909       .  S
C794        O800   1.257       .  A
C794        C864   1.526       .  S
C795        C847   1.526       .  S
H796        O797   0.962       .  S
O797       Ni805   1.953       .  S
O797       Ni799   1.848       .  S
O797       Ni804   1.841       .  S
O798       Ni799   2.075       .  S
Ni799       O803   1.913       .  S
Ni799       O801   1.962       .  S
O800       Ni805   1.910       .  S
C802        O803   1.284       .  A
C802       C1256   1.480       .  S
O807       Ni813   1.948       .  S
O807        C828   1.288       .  A
O808       Ni831   1.821       .  S
O808        C817   1.250       .  A
O809       Ni813   1.890       .  S
O809       Ni831   1.858       .  S
O809       Ni825   1.921       .  S
O809        H832   0.967       .  S
C810        O827   1.281       .  A
C810        O819   1.272       .  A
C810       C1858   1.492       .  S
O811       Ni830   1.898       .  S
O811        C817   1.266       .  A
O812       Ni830   1.880       .  S
O812        C814   1.266       .  A
Ni813       O816   1.992       .  S
Ni813       O818   1.966       .  S
C814        O824   1.299       .  A
C814        C878   1.513       .  S
O815       Ni831   1.934       .  S
O815        C821   1.280       .  A
O816        C821   1.294       .  A
C817        C836   1.439       .  S
O818        C820   1.275       .  A
O819       Ni830   1.903       .  S
C820        O826   1.264       .  A
C820       C1004   1.530       .  S
C821        C990   1.542       .  S
H822        O823   0.957       .  S
O823       Ni831   1.925       .  S
O823       Ni825   1.848       .  S
O823       Ni830   1.860       .  S
O824       Ni825   1.998       .  S
Ni825       O829   1.888       .  S
Ni825       O827   1.949       .  S
O826       Ni831   1.940       .  S
C828        O829   1.280       .  A
C828       C1085   1.477       .  S
C833        C834   1.406       .  A
C833        C838   1.392       .  A
C834        C835   1.386       .  A
C834        C839   1.453       .  S
C835        C836   1.409       .  A
C835        C842   1.454       .  S
C836        C837   1.426       .  A
C837        C838   1.381       .  A
C837        C840   1.456       .  S
C838        C841   1.458       .  S
C839        N846   1.156       .  T
C840        N845   1.157       .  T
C841        N843   1.157       .  T
C842        N844   1.158       .  T
C847        C848   1.421       .  A
C847        C852   1.428       .  A
C848        C849   1.407       .  A
C848        C853   1.458       .  S
C849        C850   1.427       .  A
C849        C856   1.455       .  S
C850        C851   1.414       .  A
C851        C852   1.433       .  A
C851        C854   1.448       .  S
C852        C855   1.448       .  S
C853        N860   1.158       .  T
C854        N859   1.157       .  T
C855        N857   1.157       .  T
C856        N858   1.158       .  T
C861        C862   1.429       .  A
C861        C866   1.424       .  A
C862        C863   1.436       .  A
C862        C867   1.446       .  S
C863        C864   1.419       .  A
C863        C870   1.448       .  S
C864        C865   1.420       .  A
C865        C866   1.415       .  A
C865        C868   1.455       .  S
C866        C869   1.451       .  S
C867        N874   1.157       .  T
C868        N873   1.157       .  T
C869        N871   1.156       .  T
C870        N872   1.157       .  T
C875        C876   1.418       .  A
C875        C880   1.424       .  A
C876        C877   1.415       .  A
C876        C881   1.453       .  S
C877        C878   1.423       .  A
C877        C884   1.453       .  S
C878        C879   1.413       .  A
C879        C880   1.430       .  A
C879        C882   1.447       .  S
C880        C883   1.443   1_556  S
C881        N888   1.158       .  T
C882        N887   1.157       .  T
C883        N885   1.157       .  T
C884        N886   1.157       .  T
C889        C890   1.402   1_554  A
C889        C894   1.387       .  A
C890        C891   1.386   1_556  A
C890        C895   1.458       .  S
C891        C892   1.412       .  A
C891        C898   1.449   1_554  S
C892        C893   1.433       .  A
C893        C894   1.388       .  A
C893        C896   1.453       .  S
C894        C897   1.455       .  S
C895        N902   1.157       .  T
C896        N901   1.157       .  T
C897        N899   1.157       .  T
C898        N900   1.156       .  T
C903        C904   1.414       .  A
C903        C908   1.409   1_554  A
C904        C905   1.422       .  A
C904        C909   1.454       .  S
C905        C906   1.427   1_554  A
C905        C912   1.444       .  S
C906        C907   1.436       .  A
C907        C908   1.430       .  A
C907        C910   1.449       .  S
C908        C911   1.450       .  S
C909        N916   1.157       .  T
C910        N915   1.158       .  T
C911        N913   1.157       .  T
C912        N914   1.155       .  T
C917        C918   1.419       .  A
C917        C922   1.402       .  A
C918        C919   1.423       .  A
C918        C923   1.452       .  S
C919        C920   1.423       .  A
C919        C926   1.449       .  S
C920        C921   1.438       .  A
C921        C922   1.422       .  A
C921        C924   1.450       .  S
C922        C925   1.446       .  S
C923        N930   1.157       .  T
C924        N929   1.157       .  T
C925        N927   1.155       .  T
C926        N928   1.157       .  T
C931        C932   1.423       .  A
C931        C936   1.420       .  A
C932        C933   1.440       .  A
C932        C937   1.448       .  S
C933        C934   1.422       .  A
C933        C940   1.447       .  S
C934        C935   1.421       .  A
C935        C936   1.426       .  A
C935        C938   1.451       .  S
C936        C939   1.450       .  S
C937        N944   1.157       .  T
C938        N943   1.157       .  T
C939        N941   1.157       .  T
C940        N942   1.157       .  T
C945        C946   1.409       .  A
C945        C950   1.405       .  A
C946        C947   1.387       .  A
C946        C951   1.456       .  S
C947        C948   1.403       .  A
C947        C954   1.444       .  S
C948        C949   1.401       .  A
C949        C950   1.393       .  A
C949        C952   1.446       .  S
C950        C953   1.450       .  S
C951        N958   1.157       .  T
C952        N957   1.156       .  T
C953        N955   1.157       .  T
C954        N956   1.155       .  T
C959        C960   1.420       .  A
C959        C964   1.427       .  A
C960        C961   1.426       .  A
C960        C965   1.450       .  S
C961        C962   1.413       .  A
C961        C968   1.446       .  S
C962        C963   1.402       .  A
C963        C964   1.417       .  A
C963        C966   1.453       .  S
C964        C967   1.442       .  S
C965        N972   1.157       .  T
C966        N971   1.157       .  T
C967        N969   1.156       .  T
C968        N970   1.156       .  T
C973        C974   1.415       .  A
C973        C978   1.443       .  A
C974        C975   1.439       .  A
C974        C979   1.448       .  S
C975        C976   1.438       .  A
C975        C982   1.449       .  S
C976        C977   1.416       .  A
C977        C978   1.417       .  A
C977        C980   1.456       .  S
C978        C981   1.457       .  S
C979        N986   1.157       .  T
C980        N985   1.158       .  T
C981        N983   1.158       .  T
C982        N984   1.158       .  T
C987        C988   1.418       .  A
C987        C992   1.418       .  A
C988        C989   1.434       .  A
C988        C993   1.450       .  S
C989        C990   1.427       .  A
C989        C996   1.450       .  S
C990        C991   1.423       .  A
C991        C992   1.429       .  A
C991        C994   1.449       .  S
C992        C995   1.450       .  S
C993       N1000   1.157       .  T
C994        N999   1.157       .  T
C995        N997   1.157       .  T
C996        N998   1.157       .  T
C1001      C1002   1.401       .  A
C1001      C1006   1.428       .  A
C1002      C1003   1.423       .  A
C1002      C1007   1.453       .  S
C1003      C1004   1.433       .  A
C1003      C1010   1.440       .  S
C1004      C1005   1.410       .  A
C1005      C1006   1.430       .  A
C1005      C1008   1.453       .  S
C1006      C1009   1.441       .  S
C1007      N1014   1.157       .  T
C1008      N1013   1.157       .  T
C1009      N1011   1.155       .  T
C1010      N1012   1.155       .  T
C1015      C1016   1.428       .  A
C1015      C1020   1.399       .  A
C1016      C1017   1.450       .  A
C1016      C1021   1.446       .  S
C1017      C1018   1.423       .  A
C1017      C1024   1.445       .  S
C1018      C1019   1.449       .  A
C1019      C1020   1.411       .  A
C1019      C1022   1.458       .  S
C1020      C1023   1.449       .  S
C1021      N1028   1.157       .  T
C1022      N1027   1.158       .  T
C1023      N1025   1.154       .  T
C1024      N1026   1.157       .  T
C1029      C1030   1.398       .  A
C1029      C1034   1.405       .  A
C1030      C1031   1.398       .  A
C1030      C1035   1.452       .  S
C1031      C1032   1.425       .  A
C1031      C1038   1.451       .  S
C1032      C1033   1.400       .  A
C1033      C1034   1.374       .  A
C1033      C1036   1.457       .  S
C1034      C1037   1.441       .  S
C1035      N1042   1.157       .  T
C1036      N1041   1.155       .  T
C1037      N1039   1.150       .  T
C1038      N1040   1.157       .  T
C1043      C1044   1.419       .  A
C1043      C1048   1.408       .  A
C1044      C1045   1.418       .  A
C1044      C1049   1.452       .  S
C1045      C1046   1.417       .  A
C1045      C1052   1.450       .  S
C1046      C1047   1.431       .  A
C1047      C1048   1.421       .  A
C1047      C1050   1.449       .  S
C1048      C1051   1.451       .  S
C1049      N1056   1.157       .  T
C1050      N1055   1.157       .  T
C1051      N1053   1.157       .  T
C1052      N1054   1.157       .  T
C1057      C1058   1.418       .  A
C1057      C1062   1.422       .  A
C1058      C1059   1.422       .  A
C1058      C1063   1.449       .  S
C1059      C1060   1.412       .  A
C1059      C1066   1.448       .  S
C1060      C1061   1.409       .  A
C1061      C1062   1.404       .  A
C1061      C1064   1.456       .  S
C1062      C1065   1.454       .  S
C1063      N1070   1.157       .  T
C1064      N1069   1.157       .  T
C1065      N1067   1.157       .  T
C1066      N1068   1.157       .  T
C1071      C1072   1.412       .  A
C1071      C1076   1.409       .  A
C1072      C1073   1.398   1_556  A
C1072      C1077   1.452       .  S
C1073      C1074   1.409       .  A
C1073      C1080   1.452       .  S
C1074      C1075   1.401   1_554  A
C1075      C1076   1.393       .  A
C1075      C1078   1.452   1_556  S
C1076      C1079   1.453       .  S
C1077      N1084   1.157   1_545  T
C1078      N1083   1.157       .  T
C1079      N1081   1.157       .  T
C1080      N1082   1.157       .  T
C1085      C1086   1.406       .  A
C1085      C1090   1.412       .  A
C1086      C1087   1.410       .  A
C1086      C1091   1.451       .  S
C1087      C1088   1.422       .  A
C1087      C1094   1.452       .  S
C1088      C1089   1.417       .  A
C1089      C1090   1.408       .  A
C1089      C1092   1.451       .  S
C1090      C1093   1.453       .  S
C1091      N1098   1.157       .  T
C1092      N1097   1.157       .  T
C1093      N1095   1.157       .  T
C1094      N1096   1.157       .  T
C1099      C1100   1.415       .  A
C1099      C1104   1.413       .  A
C1100      C1101   1.412       .  A
C1100      C1105   1.452       .  S
C1101      C1102   1.418       .  A
C1101      C1108   1.452       .  S
C1102      C1103   1.418       .  A
C1103      C1104   1.415       .  A
C1103      C1106   1.451   1_554  S
C1104      C1107   1.451       .  S
C1105      N1112   1.157       .  T
C1106      N1111   1.157       .  T
C1107      N1109   1.157   1_554  T
C1108      N1110   1.158       .  T
C1113      C1114   1.441       .  A
C1113      C1118   1.423   1_554  A
C1114      C1115   1.396       .  A
C1114      C1119   1.454       .  S
C1115      C1116   1.399   1_554  A
C1115      C1122   1.457   1_565  S
C1116      C1117   1.423       .  A
C1117      C1118   1.441       .  A
C1117      C1120   1.446       .  S
C1118      C1121   1.446       .  S
C1119      N1126   1.157       .  T
C1120      N1125   1.157       .  T
C1121      N1123   1.157       .  T
C1122      N1124   1.156       .  T
C1127      C1128   1.415       .  A
C1127      C1132   1.407       .  A
C1128      C1129   1.407       .  A
C1128      C1133   1.452       .  S
C1129      C1130   1.409       .  A
C1129      C1136   1.450       .  S
C1130      C1131   1.415       .  A
C1131      C1132   1.407       .  A
C1131      C1134   1.450       .  S
C1132      C1135   1.450       .  S
C1133      N1140   1.157       .  T
C1134      N1139   1.157       .  T
C1135      N1137   1.157       .  T
C1136      N1138   1.157       .  T
C1141      C1142   1.420       .  A
C1141      C1146   1.421       .  A
C1142      C1143   1.428       .  A
C1142      C1147   1.448       .  S
C1143      C1144   1.417       .  A
C1143      C1150   1.449       .  S
C1144      C1145   1.401       .  A
C1145      C1146   1.409       .  A
C1145      C1148   1.454       .  S
C1146      C1149   1.435       .  S
C1147      N1154   1.157       .  T
C1148      N1153   1.157       .  T
C1149      N1151   1.152   1_554  T
C1150      N1152   1.157       .  T
C1155      C1156   1.418       .  A
C1155      C1160   1.427       .  A
C1156      C1157   1.421       .  A
C1156      C1161   1.450       .  S
C1157      C1158   1.417       .  A
C1157      C1164   1.451       .  S
C1158      C1159   1.411       .  A
C1159      C1160   1.425       .  A
C1159      C1162   1.451       .  S
C1160      C1163   1.448       .  S
C1161      N1168   1.157       .  T
C1162      N1167   1.157       .  T
C1163      N1165   1.157       .  T
C1164      N1166   1.157       .  T
C1169      C1170   1.397       .  A
C1169      C1174   1.394       .  A
C1170      C1171   1.404   1_545  A
C1170      C1175   1.443       .  S
C1171      C1172   1.415       .  A
C1171      C1178   1.448       .  S
C1172      C1173   1.409       .  A
C1173      C1174   1.383   1_565  A
C1173      C1176   1.450       .  S
C1174      C1177   1.439       .  S
C1175      N1182   1.156       .  T
C1176      N1181   1.157       .  T
C1177      N1179   1.157       .  T
C1178      N1180   1.157       .  T
C1183      C1184   1.415       .  A
C1183      C1188   1.417       .  A
C1184      C1185   1.413       .  A
C1184      C1189   1.451       .  S
C1185      C1186   1.415       .  A
C1185      C1192   1.450       .  S
C1186      C1187   1.414       .  A
C1187      C1188   1.412       .  A
C1187      C1190   1.451       .  S
C1188      C1191   1.452       .  S
C1189      N1196   1.158       .  T
C1190      N1195   1.157       .  T
C1191      N1193   1.157       .  T
C1192      N1194   1.157       .  T
C1197      C1198   1.419       .  A
C1197      C1202   1.416       .  A
C1198      C1199   1.420       .  A
C1198      C1203   1.450       .  S
C1199      C1200   1.416       .  A
C1199      C1206   1.451       .  S
C1200      C1201   1.423       .  A
C1201      C1202   1.430       .  A
C1201      C1204   1.449       .  S
C1202      C1205   1.449       .  S
C1203      N1210   1.157       .  T
C1204      N1209   1.157       .  T
C1205      N1207   1.157       .  T
C1206      N1208   1.157       .  T
C1211      C1212   1.415       .  A
C1211      C1216   1.401       .  A
C1212      C1213   1.429       .  A
C1212      C1217   1.448       .  S
C1213      C1214   1.426       .  A
C1213      C1220   1.449       .  S
C1214      C1215   1.432       .  A
C1215      C1216   1.408       .  A
C1215      C1218   1.449       .  S
C1216      C1219   1.454       .  S
C1217      N1224   1.157       .  T
C1218      N1223   1.157       .  T
C1219      N1221   1.157       .  T
C1220      N1222   1.157       .  T
C1225      C1226   1.418       .  A
C1225      C1230   1.416       .  A
C1226      C1227   1.407       .  A
C1226      C1231   1.443   1_545  S
C1227      C1228   1.405       .  A
C1227      C1234   1.455       .  S
C1228      C1229   1.418       .  A
C1229      C1230   1.426       .  A
C1229      C1232   1.449       .  S
C1230      C1233   1.447       .  S
C1231      N1238   1.156       .  T
C1232      N1237   1.157       .  T
C1233      N1235   1.157       .  T
C1234      N1236   1.157       .  T
C1239      C1240   1.402       .  A
C1239      C1244   1.402       .  A
C1240      C1241   1.399       .  A
C1240      C1245   1.448       .  S
C1241      C1242   1.413       .  A
C1241      C1248   1.451       .  S
C1242      C1243   1.413       .  A
C1243      C1244   1.394       .  A
C1243      C1246   1.453       .  S
C1244      C1247   1.447       .  S
C1245      N1252   1.157       .  T
C1246      N1251   1.157       .  T
C1247      N1249   1.156       .  T
C1248      N1250   1.157       .  T
C1253      C1254   1.421       .  A
C1253      C1258   1.417       .  A
C1254      C1255   1.411       .  A
C1254      C1259   1.453       .  S
C1255      C1256   1.411       .  A
C1255      C1262   1.453       .  S
C1256      C1257   1.407       .  A
C1257      C1258   1.416       .  A
C1257      C1260   1.451       .  S
C1258      C1261   1.442       .  S
C1259      N1266   1.158       .  T
C1260      N1265   1.157       .  T
C1261      N1263   1.154       .  T
C1262      N1264   1.157       .  T
C1267      C1268   1.415       .  A
C1267      C1272   1.424       .  A
C1268      C1269   1.413       .  A
C1268      C1273   1.445       .  S
C1269      C1270   1.412       .  A
C1269      C1276   1.451       .  S
C1270      C1271   1.404       .  A
C1271      C1272   1.399       .  A
C1271      C1274   1.454       .  S
C1272      C1275   1.455       .  S
C1273      N1280   1.156       .  T
C1274      N1279   1.157       .  T
C1275      N1277   1.158       .  T
C1276      N1278   1.157       .  T
C1281      C1282   1.419       .  A
C1281      C1286   1.411       .  A
C1282      C1283   1.412       .  A
C1282      C1287   1.448       .  S
C1283      C1284   1.411       .  A
C1283      C1290   1.453       .  S
C1284      C1285   1.420       .  A
C1285      C1286   1.415       .  A
C1285      C1288   1.449       .  S
C1286      C1289   1.452       .  S
C1287      N1294   1.156       .  T
C1288      N1293   1.157       .  T
C1289      N1291   1.157       .  T
C1290      N1292   1.157       .  T
C1295      C1296   1.420       .  A
C1295      C1300   1.398       .  A
C1296      C1297   1.438       .  A
C1296      C1301   1.445       .  S
C1297      C1298   1.421       .  A
C1297      C1304   1.446       .  S
C1298      C1299   1.432       .  A
C1299      C1300   1.401       .  A
C1299      C1302   1.448       .  S
C1300      C1303   1.452       .  S
C1301      N1308   1.157       .  T
C1302      N1307   1.158       .  T
C1303      N1305   1.157       .  T
C1304      N1306   1.157       .  T
C1309      C1310   1.419       .  A
C1309      C1314   1.414   1_556  A
C1310      C1311   1.424       .  A
C1310      C1315   1.449       .  S
C1311      C1312   1.415       .  A
C1311      C1318   1.450       .  S
C1312      C1313   1.417       .  A
C1313      C1314   1.420   1_556  A
C1313      C1316   1.449       .  S
C1314      C1317   1.450       .  S
C1315      N1322   1.157   1_565  T
C1316      N1321   1.157   1_556  T
C1317      N1319   1.157       .  T
C1318      N1320   1.157       .  T
C1323      C1324   1.418       .  A
C1323      C1328   1.418       .  A
C1324      C1325   1.422       .  A
C1324      C1329   1.450       .  S
C1325      C1326   1.414       .  A
C1325      C1332   1.448       .  S
C1326      C1327   1.415       .  A
C1327      C1328   1.410       .  A
C1327      C1330   1.454       .  S
C1328      C1331   1.454       .  S
C1329      N1336   1.157       .  T
C1330      N1335   1.157       .  T
C1331      N1333   1.158       .  T
C1332      N1334   1.157       .  T
C1337      C1338   1.423       .  A
C1337      C1342   1.405       .  A
C1338      C1339   1.420       .  A
C1338      C1343   1.442       .  S
C1339      C1340   1.409       .  A
C1339      C1346   1.452       .  S
C1340      C1341   1.423       .  A
C1341      C1342   1.416       .  A
C1341      C1344   1.437       .  S
C1342      C1345   1.454       .  S
C1343      N1350   1.155       .  T
C1344      N1349   1.153       .  T
C1345      N1347   1.157       .  T
C1346      N1348   1.157       .  T
C1351      C1352   1.415       .  A
C1351      C1356   1.412       .  A
C1352      C1353   1.420       .  A
C1352      C1357   1.448       .  S
C1353      C1354   1.413       .  A
C1353      C1360   1.449       .  S
C1354      C1355   1.414       .  A
C1355      C1356   1.416       .  A
C1355      C1358   1.447       .  S
C1356      C1359   1.450       .  S
C1357      N1364   1.157       .  T
C1358      N1363   1.156       .  T
C1359      N1361   1.157       .  T
C1360      N1362   1.157       .  T
C1365      C1366   1.410   1_545  A
C1365      C1370   1.409   1_545  A
C1366      C1367   1.403       .  A
C1366      C1371   1.451   1_565  S
C1367      C1368   1.409       .  A
C1367      C1374   1.452       .  S
C1368      C1369   1.409       .  A
C1369      C1370   1.395       .  A
C1369      C1372   1.455       .  S
C1370      C1373   1.453       .  S
C1371      N1378   1.157       .  T
C1372      N1377   1.157       .  T
C1373      N1375   1.157       .  T
C1374      N1376   1.157       .  T
C1379      C1380   1.417       .  A
C1379      C1384   1.415       .  A
C1380      C1381   1.424       .  A
C1380      C1385   1.449       .  S
C1381      C1382   1.416       .  A
C1381      C1388   1.448   1_545  S
C1382      C1383   1.416       .  A
C1383      C1384   1.420       .  A
C1383      C1386   1.450       .  S
C1384      C1387   1.449       .  S
C1385      N1392   1.157       .  T
C1386      N1391   1.157       .  T
C1387      N1389   1.157       .  T
C1388      N1390   1.157       .  T
C1393      C1394   1.413       .  A
C1393      C1398   1.419       .  A
C1394      C1395   1.405   1_655  A
C1394      C1399   1.452       .  S
C1395      C1396   1.418       .  A
C1395      C1402   1.454       .  S
C1396      C1397   1.410       .  A
C1397      C1398   1.417   1_455  A
C1397      C1400   1.450       .  S
C1398      C1401   1.450       .  S
C1399      N1406   1.158       .  T
C1400      N1405   1.157       .  T
C1401      N1403   1.158       .  T
C1402      N1404   1.157       .  T
C1407      C1408   1.416   1_545  A
C1407      C1412   1.416       .  A
C1408      C1409   1.394       .  A
C1408      C1413   1.452   1_565  S
C1409      C1410   1.393       .  A
C1409      C1416   1.449       .  S
C1410      C1411   1.404       .  A
C1411      C1412   1.388   1_565  A
C1411      C1414   1.458       .  S
C1412      C1415   1.449       .  S
C1413      N1420   1.157       .  T
C1414      N1419   1.158       .  T
C1415      N1417   1.156       .  T
C1416      N1418   1.158       .  T
C1421      C1422   1.419       .  A
C1421      C1426   1.424       .  A
C1422      C1423   1.414       .  A
C1422      C1427   1.447       .  S
C1423      C1424   1.407   1_655  A
C1423      C1430   1.451   1_655  S
C1424      C1425   1.406       .  A
C1425      C1426   1.404   1_455  A
C1425      C1428   1.455       .  S
C1426      C1429   1.454       .  S
C1427      N1434   1.156       .  T
C1428      N1433   1.157       .  T
C1429      N1431   1.158       .  T
C1430      N1432   1.157       .  T
C1435      C1436   1.405       .  A
C1435      C1440   1.413       .  A
C1436      C1437   1.415       .  A
C1436      C1441   1.449       .  S
C1437      C1438   1.422       .  A
C1437      C1444   1.450       .  S
C1438      C1439   1.414       .  A
C1439      C1440   1.410       .  A
C1439      C1442   1.449       .  S
C1440      C1443   1.452       .  S
C1441      N1448   1.157       .  T
C1442      N1447   1.157       .  T
C1443      N1445   1.157       .  T
C1444      N1446   1.157       .  T
C1449      C1450   1.426       .  A
C1449      C1454   1.423       .  A
C1450      C1451   1.423       .  A
C1450      C1455   1.450       .  S
C1451      C1452   1.415       .  A
C1451      C1458   1.452       .  S
C1452      C1453   1.407       .  A
C1453      C1454   1.425       .  A
C1453      C1456   1.445       .  S
C1454      C1457   1.438       .  S
C1455      N1462   1.157       .  T
C1456      N1461   1.157       .  T
C1457      N1459   1.153       .  T
C1458      N1460   1.157       .  T
C1463      C1464   1.415   1_455  A
C1463      C1468   1.418   1_455  A
C1464      C1465   1.402       .  A
C1464      C1469   1.443   1_655  S
C1465      C1466   1.406       .  A
C1465      C1472   1.457       .  S
C1466      C1467   1.415       .  A
C1467      C1468   1.428       .  A
C1467      C1470   1.446       .  S
C1468      C1471   1.445   1_655  S
C1469      N1476   1.155       .  T
C1470      N1475   1.157       .  T
C1471      N1473   1.156       .  T
C1472      N1474   1.157       .  T
C1477      C1478   1.424       .  A
C1477      C1482   1.417       .  A
C1478      C1479   1.407       .  A
C1478      C1483   1.437       .  S
C1479      C1480   1.400       .  A
C1479      C1486   1.457       .  S
C1480      C1481   1.413       .  A
C1481      C1482   1.421       .  A
C1481      C1484   1.445       .  S
C1482      C1485   1.449       .  S
C1483      N1490   1.152       .  T
C1484      N1489   1.156       .  T
C1485      N1487   1.157       .  T
C1486      N1488   1.158       .  T
C1491      C1492   1.419       .  A
C1491      C1496   1.423       .  A
C1492      C1493   1.429       .  A
C1492      C1497   1.447   1_556  S
C1493      C1494   1.420       .  A
C1493      C1500   1.449       .  S
C1494      C1495   1.405       .  A
C1495      C1496   1.415       .  A
C1495      C1498   1.453       .  S
C1496      C1499   1.444   1_545  S
C1497      N1504   1.157       .  T
C1498      N1503   1.157       .  T
C1499      N1501   1.155       .  T
C1500      N1502   1.157       .  T
C1505      C1506   1.406   1_556  A
C1505      C1510   1.403       .  A
C1506      C1507   1.402   1_554  A
C1506      C1511   1.443       .  S
C1507      C1508   1.407       .  A
C1507      C1514   1.449   1_556  S
C1508      C1509   1.397       .  A
C1509      C1510   1.394       .  A
C1509      C1512   1.443       .  S
C1510      C1513   1.441       .  S
C1511      N1518   1.156       .  T
C1512      N1517   1.157       .  T
C1513      N1515   1.154       .  T
C1514      N1516   1.157       .  T
C1519      C1520   1.417       .  A
C1519      C1524   1.411       .  A
C1520      C1521   1.410       .  A
C1520      C1525   1.452       .  S
C1521      C1522   1.412       .  A
C1521      C1528   1.451       .  S
C1522      C1523   1.418       .  A
C1523      C1524   1.410       .  A
C1523      C1526   1.452       .  S
C1524      C1527   1.451       .  S
C1525      N1532   1.157       .  T
C1526      N1531   1.157       .  T
C1527      N1529   1.157       .  T
C1528      N1530   1.157       .  T
C1533      C1534   1.419       .  A
C1533      C1538   1.407       .  A
C1534      C1535   1.429       .  A
C1534      C1539   1.444       .  S
C1535      C1536   1.415       .  A
C1535      C1542   1.447       .  S
C1536      C1537   1.410       .  A
C1537      C1538   1.414       .  A
C1537      C1540   1.437       .  S
C1538      C1541   1.448       .  S
C1539      N1546   1.157       .  T
C1540      N1545   1.153       .  T
C1541      N1543   1.157       .  T
C1542      N1544   1.157       .  T
C1547      C1548   1.410       .  A
C1547      C1552   1.405       .  A
C1548      C1549   1.417   1_655  A
C1548      C1553   1.450       .  S
C1549      C1550   1.421       .  A
C1549      C1556   1.450       .  S
C1550      C1551   1.427       .  A
C1551      C1552   1.405   1_455  A
C1551      C1554   1.452       .  S
C1552      C1555   1.456       .  S
C1553      N1560   1.157       .  T
C1554      N1559   1.157       .  T
C1555      N1557   1.157       .  T
C1556      N1558   1.157       .  T
C1561      C1562   1.417       .  A
C1561      C1566   1.404       .  A
C1562      C1563   1.436       .  A
C1562      C1567   1.448       .  S
C1563      C1564   1.429       .  A
C1563      C1570   1.447       .  S
C1564      C1565   1.430       .  A
C1565      C1566   1.408       .  A
C1565      C1568   1.440       .  S
C1566      C1569   1.454       .  S
C1567      N1574   1.157       .  T
C1568      N1573   1.154       .  T
C1569      N1571   1.155       .  T
C1570      N1572   1.157       .  T
C1575      C1576   1.425       .  A
C1575      C1580   1.418       .  A
C1576      C1577   1.429       .  A
C1576      C1581   1.444       .  S
C1577      C1578   1.412       .  A
C1577      C1584   1.450       .  S
C1578      C1579   1.421       .  A
C1579      C1580   1.425       .  A
C1579      C1582   1.449       .  S
C1580      C1583   1.450       .  S
C1581      N1588   1.155       .  T
C1582      N1587   1.157       .  T
C1583      N1585   1.157       .  T
C1584      N1586   1.157       .  T
C1589      C1590   1.411       .  A
C1589      C1594   1.402       .  A
C1590      C1591   1.391       .  A
C1590      C1595   1.450       .  S
C1591      C1592   1.407       .  A
C1591      C1598   1.453       .  S
C1592      C1593   1.408       .  A
C1593      C1594   1.390       .  A
C1593      C1596   1.452       .  S
C1594      C1597   1.453       .  S
C1595      N1602   1.156       .  T
C1596      N1601   1.157       .  T
C1597      N1599   1.158       .  T
C1598      N1600   1.157       .  T
C1603      C1604   1.412       .  A
C1603      C1608   1.397       .  A
C1604      C1605   1.417       .  A
C1604      C1609   1.440       .  S
C1605      C1606   1.411       .  A
C1605      C1612   1.450       .  S
C1606      C1607   1.429       .  A
C1607      C1608   1.416       .  A
C1607      C1610   1.444       .  S
C1608      C1611   1.451       .  S
C1609      N1616   1.155   1_554  T
C1610      N1615   1.158       .  T
C1611      N1613   1.157       .  T
C1612      N1614   1.157       .  T
C1617      C1618   1.408       .  A
C1617      C1622   1.422       .  A
C1618      C1619   1.412       .  A
C1618      C1623   1.450       .  S
C1619      C1620   1.435       .  A
C1619      C1626   1.457       .  S
C1620      C1621   1.419       .  A
C1621      C1622   1.437       .  A
C1621      C1624   1.447       .  S
C1622      C1625   1.447       .  S
C1623      N1630   1.155       .  T
C1624      N1629   1.157       .  T
C1625      N1627   1.157       .  T
C1626      N1628   1.158       .  T
C1631      C1632   1.406       .  A
C1631      C1636   1.409       .  A
C1632      C1633   1.415       .  A
C1632      C1637   1.451       .  S
C1633      C1634   1.427       .  A
C1633      C1640   1.450       .  S
C1634      C1635   1.426       .  A
C1635      C1636   1.405       .  A
C1635      C1638   1.455       .  S
C1636      C1639   1.456       .  S
C1637      N1644   1.157       .  T
C1638      N1643   1.158       .  T
C1639      N1641   1.157       .  T
C1640      N1642   1.157       .  T
C1645      C1646   1.422       .  A
C1645      C1650   1.417       .  A
C1646      C1647   1.425       .  A
C1646      C1651   1.452       .  S
C1647      C1648   1.415       .  A
C1647      C1654   1.445       .  S
C1648      C1649   1.420       .  A
C1649      C1650   1.428       .  A
C1649      C1652   1.449       .  S
C1650      C1653   1.449       .  S
C1651      N1658   1.157       .  T
C1652      N1657   1.157       .  T
C1653      N1655   1.157       .  T
C1654      N1656   1.155   1_565  T
C1659      C1660   1.436       .  A
C1659      C1664   1.407       .  A
C1660      C1661   1.417       .  A
C1660      C1665   1.438       .  S
C1661      C1662   1.399       .  A
C1661      C1668   1.457       .  S
C1662      C1663   1.424       .  A
C1663      C1664   1.418       .  A
C1663      C1666   1.441       .  S
C1664      C1667   1.454       .  S
C1665      N1672   1.156       .  T
C1666      N1671   1.155       .  T
C1667      N1669   1.157       .  T
C1668      N1670   1.157       .  T
C1673      C1674   1.418       .  A
C1673      C1678   1.411       .  A
C1674      C1675   1.423       .  A
C1674      C1679   1.449       .  S
C1675      C1676   1.415       .  A
C1675      C1682   1.449       .  S
C1676      C1677   1.422       .  A
C1677      C1678   1.421       .  A
C1677      C1680   1.445       .  S
C1678      C1681   1.453       .  S
C1679      N1686   1.157       .  T
C1680      N1685   1.155       .  T
C1681      N1683   1.157       .  T
C1682      N1684   1.157       .  T
C1687      C1688   1.391       .  A
C1687      C1692   1.395   1_545  A
C1688      C1689   1.391   1_545  A
C1688      C1693   1.449       .  S
C1689      C1690   1.417       .  A
C1689      C1696   1.452       .  S
C1690      C1691   1.411       .  A
C1691      C1692   1.392       .  A
C1691      C1694   1.451       .  S
C1692      C1695   1.449       .  S
C1693      N1700   1.157       .  T
C1694      N1699   1.157       .  T
C1695      N1697   1.157       .  T
C1696      N1698   1.157       .  T
C1701      C1702   1.407       .  A
C1701      C1706   1.413       .  A
C1702      C1703   1.413       .  A
C1702      C1707   1.451       .  S
C1703      C1704   1.421       .  A
C1703      C1710   1.451   1_554  S
C1704      C1705   1.414       .  A
C1705      C1706   1.413       .  A
C1705      C1708   1.451       .  S
C1706      C1709   1.449       .  S
C1707      N1714   1.157   1_554  T
C1708      N1713   1.157       .  T
C1709      N1711   1.157       .  T
C1710      N1712   1.157       .  T
C1715      C1716   1.439       .  A
C1715      C1720   1.417   1_554  A
C1716      C1717   1.400   1_545  A
C1716      C1721   1.453       .  S
C1717      C1718   1.393   1_554  A
C1717      C1724   1.452       .  S
C1718      C1719   1.423   1_565  A
C1719      C1720   1.438       .  A
C1719      C1722   1.446       .  S
C1720      C1723   1.446       .  S
C1721      N1728   1.159       .  T
C1722      N1727   1.157       .  T
C1723      N1725   1.157       .  T
C1724      N1726   1.154       .  T
C1729      C1730   1.419       .  A
C1729      C1734   1.427       .  A
C1730      C1731   1.413       .  A
C1730      C1735   1.450       .  S
C1731      C1732   1.410       .  A
C1731      C1738   1.450       .  S
C1732      C1733   1.399       .  A
C1733      C1734   1.407       .  A
C1733      C1736   1.450       .  S
C1734      C1737   1.449       .  S
C1735      N1742   1.157       .  T
C1736      N1741   1.156       .  T
C1737      N1739   1.157       .  T
C1738      N1740   1.157       .  T
C1743      C1744   1.410       .  A
C1743      C1748   1.399       .  A
C1744      C1745   1.419       .  A
C1744      C1749   1.449       .  S
C1745      C1746   1.420       .  A
C1745      C1752   1.449       .  S
C1746      C1747   1.432       .  A
C1747      C1748   1.403       .  A
C1747      C1750   1.454       .  S
C1748      C1751   1.454       .  S
C1749      N1756   1.157       .  T
C1750      N1755   1.158       .  T
C1751      N1753   1.157       .  T
C1752      N1754   1.157       .  T
C1757      C1758   1.426       .  A
C1757      C1762   1.427       .  A
C1758      C1759   1.408       .  A
C1758      C1763   1.453       .  S
C1759      C1760   1.408       .  A
C1759      C1766   1.452       .  S
C1760      C1761   1.405       .  A
C1761      C1762   1.416       .  A
C1761      C1764   1.451       .  S
C1762      C1765   1.451       .  S
C1763      N1770   1.158       .  T
C1764      N1769   1.157       .  T
C1765      N1767   1.158   1_556  T
C1766      N1768   1.156       .  T
C1771      C1772   1.408       .  A
C1771      C1776   1.404       .  A
C1772      C1773   1.392       .  A
C1772      C1777   1.446       .  S
C1773      C1774   1.408       .  A
C1773      C1780   1.450       .  S
C1774      C1775   1.417       .  A
C1775      C1776   1.396       .  A
C1775      C1778   1.451       .  S
C1776      C1779   1.451       .  S
C1777      N1784   1.157       .  T
C1778      N1783   1.158       .  T
C1779      N1781   1.157       .  T
C1780      N1782   1.157       .  T
C1785      C1786   1.414       .  A
C1785      C1790   1.416       .  A
C1786      C1787   1.421       .  A
C1786      C1791   1.445       .  S
C1787      C1788   1.417       .  A
C1787      C1794   1.450       .  S
C1788      C1789   1.407       .  A
C1789      C1790   1.405       .  A
C1789      C1792   1.458       .  S
C1790      C1793   1.440       .  S
C1791      N1798   1.156       .  T
C1792      N1797   1.158       .  T
C1793      N1795   1.153       .  T
C1794      N1796   1.157       .  T
C1799      C1800   1.412       .  A
C1799      C1804   1.414       .  A
C1800      C1801   1.404       .  A
C1800      C1805   1.455       .  S
C1801      C1802   1.413       .  A
C1801      C1808   1.449       .  S
C1802      C1803   1.415       .  A
C1803      C1804   1.419       .  A
C1803      C1806   1.448       .  S
C1804      C1807   1.450       .  S
C1805      N1812   1.157       .  T
C1806      N1811   1.157       .  T
C1807      N1809   1.157       .  T
C1808      N1810   1.155       .  T
C1813      C1814   1.426       .  A
C1813      C1818   1.416       .  A
C1814      C1815   1.404       .  A
C1814      C1819   1.455       .  S
C1815      C1816   1.424       .  A
C1815      C1822   1.458       .  S
C1816      C1817   1.426       .  A
C1817      C1818   1.432       .  A
C1817      C1820   1.443       .  S
C1818      C1821   1.449       .  S
C1819      N1826   1.156       .  T
C1820      N1825   1.156       .  T
C1821      N1823   1.157       .  T
C1822      N1824   1.157       .  T
C1827      C1828   1.425       .  A
C1827      C1832   1.411       .  A
C1828      C1829   1.443       .  A
C1828      C1833   1.445   1_556  S
C1829      C1830   1.422       .  A
C1829      C1836   1.445       .  S
C1830      C1831   1.422       .  A
C1831      C1832   1.399       .  A
C1831      C1834   1.456       .  S
C1832      C1835   1.455       .  S
C1833      N1840   1.157       .  T
C1834      N1839   1.157       .  T
C1835      N1837   1.157       .  T
C1836      N1838   1.157       .  T
C1841      C1842   1.415       .  A
C1841      C1846   1.414       .  A
C1842      C1843   1.395       .  A
C1842      C1847   1.456       .  S
C1843      C1844   1.411       .  A
C1843      C1850   1.452       .  S
C1844      C1845   1.419       .  A
C1845      C1846   1.420       .  A
C1845      C1848   1.449       .  S
C1846      C1849   1.449       .  S
C1847      N1854   1.158       .  T
C1848      N1853   1.157       .  T
C1849      N1851   1.157       .  T
C1850      N1852   1.157       .  T
C1855      C1856   1.423       .  A
C1855      C1860   1.420       .  A
C1856      C1857   1.411   1_655  A
C1856      C1861   1.452       .  S
C1857      C1858   1.411       .  A
C1857      C1864   1.453       .  S
C1858      C1859   1.413       .  A
C1859      C1860   1.416   1_455  A
C1859      C1862   1.452       .  S
C1860      C1863   1.450       .  S
C1861      N1868   1.158       .  T
C1862      N1867   1.158       .  T
C1863      N1865   1.157       .  T
C1864      N1866   1.157       .  T
C1869      C1870   1.404       .  A
C1869      C1874   1.405       .  A
C1870      C1871   1.397       .  A
C1870      C1875   1.451       .  S
C1871      C1872   1.415       .  A
C1871      C1878   1.452       .  S
C1872      C1873   1.420       .  A
C1873      C1874   1.388       .  A
C1873      C1876   1.457       .  S
C1874      C1877   1.455       .  S
C1875      N1882   1.157       .  T
C1876      N1881   1.158       .  T
C1877      N1879   1.157       .  T
C1878      N1880   1.157   1_556  T
C1883      C1884   1.417       .  A
C1883      C1888   1.414       .  A
C1884      C1885   1.409       .  A
C1884      C1889   1.452       .  S
C1885      C1886   1.413       .  A
C1885      C1892   1.452       .  S
C1886      C1887   1.413       .  A
C1887      C1888   1.411       .  A
C1887      C1890   1.451       .  S
C1888      C1891   1.451       .  S
C1889      N1896   1.158       .  T
C1890      N1895   1.157       .  T
C1891      N1893   1.157       .  T
C1892      N1894   1.157       .  T
C1897      C1898   1.418       .  A
C1897      C1902   1.414       .  A
C1898      C1899   1.421       .  A
C1898      C1903   1.450       .  S
C1899      C1900   1.418       .  A
C1899      C1906   1.451       .  S
C1900      C1901   1.426       .  A
C1901      C1902   1.430       .  A
C1901      C1904   1.446       .  S
C1902      C1905   1.450       .  S
C1903      N1910   1.157       .  T
C1904      N1909   1.157       .  T
C1905      N1907   1.157       .  T
C1906      N1908   1.157       .  T
C1911      C1912   1.410       .  A
C1911      C1916   1.411       .  A
C1912      C1913   1.411       .  A
C1912      C1917   1.452       .  S
C1913      C1914   1.421       .  A
C1913      C1920   1.452       .  S
C1914      C1915   1.420       .  A
C1915      C1916   1.410       .  A
C1915      C1918   1.451       .  S
C1916      C1919   1.452       .  S
C1917      N1924   1.157       .  T
C1918      N1923   1.158       .  T
C1919      N1921   1.157       .  T
C1920      N1922   1.158       .  T
C1925      C1926   1.429       .  A
C1925      C1930   1.431       .  A
C1926      C1927   1.433       .  A
C1926      C1931   1.448       .  S
C1927      C1928   1.417       .  A
C1927      C1934   1.450       .  S
C1928      C1929   1.415       .  A
C1929      C1930   1.416       .  A
C1929      C1932   1.455       .  S
C1930      C1933   1.451       .  S
C1931      N1938   1.157       .  T
C1932      N1937   1.157       .  T
C1933      N1935   1.156       .  T
C1934      N1936   1.157       .  T
C1939      C1940   1.413       .  A
C1939      C1944   1.435       .  A
C1940      C1941   1.432       .  A
C1940      C1945   1.447       .  S
C1941      C1942   1.424       .  A
C1941      C1948   1.447       .  S
C1942      C1943   1.417       .  A
C1943      C1944   1.403       .  A
C1943      C1946   1.463       .  S
C1944      C1947   1.457       .  S
C1945      N1952   1.157       .  T
C1946      N1951   1.158       .  T
C1947      N1949   1.158       .  T
C1948      N1950   1.157       .  T
C1953      C1954   1.417       .  A
C1953      C1958   1.418       .  A
C1954      C1955   1.406       .  A
C1954      C1959   1.452       .  S
C1955      C1956   1.408   1_655  A
C1955      C1962   1.451   1_655  S
C1956      C1957   1.410   1_455  A
C1957      C1958   1.404       .  A
C1957      C1960   1.453   1_655  S
C1958      C1961   1.452       .  S
C1959      N1966   1.157       .  T
C1960      N1965   1.157       .  T
C1961      N1963   1.158       .  T
C1962      N1964   1.157       .  T
C1967      C1968   1.410       .  A
C1967      C1972   1.408       .  A
C1968      C1969   1.416       .  A
C1968      C1973   1.454       .  S
C1969      C1970   1.424       .  A
C1969      C1976   1.448       .  S
C1970      C1971   1.428       .  A
C1971      C1972   1.420       .  A
C1971      C1974   1.450       .  S
C1972      C1975   1.451       .  S
C1973      N1980   1.157       .  T
C1974      N1979   1.157       .  T
C1975      N1977   1.157       .  T
C1976      N1978   1.156       .  T
C1981      C1982   1.402       .  A
C1981      C1986   1.406       .  A
C1982      C1983   1.397       .  A
C1982      C1987   1.454       .  S
C1983      C1984   1.416       .  A
C1983      C1990   1.450       .  S
C1984      C1985   1.412       .  A
C1985      C1986   1.398       .  A
C1985      C1988   1.454       .  S
C1986      C1989   1.450       .  S
C1987      N1994   1.157       .  T
C1988      N1993   1.157       .  T
C1989      N1991   1.157       .  T
C1990      N1992   1.157       .  T
C1995      C1996   1.412       .  A
C1995      C2000   1.415       .  A
C1996      C1997   1.413       .  A
C1996      C2001   1.451       .  S
C1997      C1998   1.420   1_655  A
C1997      C2004   1.450       .  S
C1998      C1999   1.417       .  A
C1999      C2000   1.414   1_455  A
C1999      C2002   1.451       .  S
C2000      C2003   1.452       .  S
C2001      N2008   1.157   1_554  T
C2002      N2007   1.157       .  T
C2003      N2005   1.157       .  T
C2004      N2006   1.157   1_654  T
C2009      C2010   1.415       .  A
C2009      C2014   1.412   1_556  A
C2010      C2011   1.420       .  A
C2010      C2015   1.448       .  S
C2011      C2012   1.414       .  A
C2011      C2018   1.449       .  S
C2012      C2013   1.418       .  A
C2013      C2014   1.423   1_556  A
C2013      C2016   1.447   1_556  S
C2014      C2017   1.449       .  S
C2015      N2022   1.157       .  T
C2016      N2021   1.156       .  T
C2017      N2019   1.157       .  T
C2018      N2020   1.157       .  T
C2023      C2024   1.408       .  A
C2023      C2028   1.412       .  A
C2024      C2025   1.412   1_655  A
C2024      C2029   1.450       .  S
C2025      C2026   1.419       .  A
C2025      C2032   1.451       .  S
C2026      C2027   1.419       .  A
C2027      C2028   1.407   1_455  A
C2027      C2030   1.452       .  S
C2028      C2031   1.454       .  S
C2029      N2036   1.157       .  T
C2030      N2035   1.158       .  T
C2031      N2033   1.157       .  T
C2032      N2034   1.157       .  T
C2037      C2038   1.419       .  A
C2037      C2042   1.404       .  A
C2038      C2039   1.429       .  A
C2038      C2043   1.446       .  S
C2039      C2040   1.419       .  A
C2039      C2046   1.448       .  S
C2040      C2041   1.426       .  A
C2041      C2042   1.416       .  A
C2041      C2044   1.443       .  S
C2042      C2045   1.453       .  S
C2043      N2050   1.157       .  T
C2044      N2049   1.155       .  T
C2045      N2047   1.157       .  T
C2046      N2048   1.157       .  T
C2051      C2052   1.417       .  A
C2051      C2056   1.425       .  A
C2052      C2053   1.416       .  A
C2052      C2057   1.450       .  S
C2053      C2054   1.412       .  A
C2053      C2060   1.450       .  S
C2054      C2055   1.409       .  A
C2055      C2056   1.418       .  A
C2055      C2058   1.453       .  S
C2056      C2059   1.450       .  S
C2057      N2064   1.157       .  T
C2058      N2063   1.158       .  T
C2059      N2061   1.157       .  T
C2060      N2062   1.157       .  T
C2065      C2066   1.409       .  A
C2065      C2070   1.410       .  A
C2066      C2067   1.406       .  A
C2066      C2071   1.453       .  S
C2067      C2068   1.420       .  A
C2067      C2074   1.452       .  S
C2068      C2069   1.421       .  A
C2069      C2070   1.407       .  A
C2069      C2072   1.452       .  S
C2070      C2073   1.453       .  S
C2071      N2078   1.157       .  T
C2072      N2077   1.158       .  T
C2073      N2075   1.157       .  T
C2074      N2076   1.157       .  T
C2079      C2080   1.416       .  A
C2079      C2084   1.412       .  A
C2080      C2081   1.426       .  A
C2080      C2085   1.448       .  S
C2081      C2082   1.416       .  A
C2081      C2088   1.448       .  S
C2082      C2083   1.411       .  A
C2083      C2084   1.409       .  A
C2083      C2086   1.453       .  S
C2084      C2087   1.444       .  S
C2085      N2092   1.157       .  T
C2086      N2091   1.157       .  T
C2087      N2089   1.155       .  T
C2088      N2090   1.157       .  T
C2093      C2094   1.416       .  A
C2093      C2098   1.415       .  A
C2094      C2095   1.409       .  A
C2094      C2099   1.451       .  S
C2095      C2096   1.413       .  A
C2095      C2102   1.452       .  S
C2096      C2097   1.417       .  A
C2097      C2098   1.408       .  A
C2097      C2100   1.452       .  S
C2098      C2101   1.453       .  S
C2099      N2106   1.157       .  T
C2100      N2105   1.158       .  T
C2101      N2103   1.158       .  T
C2102      N2104   1.157       .  T
C2107      C2108   1.422       .  A
C2107      C2112   1.429       .  A
C2108      C2109   1.429       .  A
C2108      C2113   1.448       .  S
C2109      C2110   1.415       .  A
C2109      C2116   1.444       .  S
C2110      C2111   1.400       .  A
C2111      C2112   1.408       .  A
C2111      C2114   1.456       .  S
C2112      C2115   1.444       .  S
C2113      N2120   1.157       .  T
C2114      N2119   1.157       .  T
C2115      N2117   1.156       .  T
C2116      N2118   1.156       .  T
C2121      C2122   1.434       .  A
C2121      C2126   1.432       .  A
C2122      C2123   1.415       .  A
C2122      C2127   1.457       .  S
C2123      C2124   1.420       .  A
C2123      C2130   1.458       .  S
C2124      C2125   1.417       .  A
C2125      C2126   1.442       .  A
C2125      C2128   1.447       .  S
C2126      C2129   1.447       .  S
C2127      N2134   1.158       .  T
C2128      N2133   1.157       .  T
C2129      N2131   1.158       .  T
C2130      N2132   1.157       .  T
C2135      C2136   1.409       .  A
C2135      C2140   1.418       .  A
C2136      C2137   1.395       .  A
C2136      C2141   1.450       .  S
C2137      C2138   1.402       .  A
C2137      C2144   1.447       .  S
C2138      C2139   1.391       .  A
C2139      C2140   1.388       .  A
C2139      C2142   1.448       .  S
C2140      C2143   1.451       .  S
C2141      N2148   1.157       .  T
C2142      N2147   1.157       .  T
C2143      N2145   1.157       .  T
C2144      N2146   1.157       .  T
C2149      C2150   1.417       .  A
C2149      C2154   1.418       .  A
C2150      C2151   1.407       .  A
C2150      C2155   1.453       .  S
C2151      C2152   1.416       .  A
C2151      C2158   1.454       .  S
C2152      C2153   1.411       .  A
C2153      C2154   1.412       .  A
C2153      C2156   1.450       .  S
C2154      C2157   1.452       .  S
C2155      N2162   1.158       .  T
C2156      N2161   1.157       .  T
C2157      N2159   1.158       .  T
C2158      N2160   1.158       .  T
C2163      C2164   1.419       .  A
C2163      C2168   1.446       .  A
C2164      C2165   1.444       .  A
C2164      C2169   1.446       .  S
C2165      C2166   1.428       .  A
C2165      C2172   1.445       .  S
C2166      C2167   1.404       .  A
C2167      C2168   1.401       .  A
C2167      C2170   1.459       .  S
C2168      C2171   1.457       .  S
C2169      N2176   1.157       .  T
C2170      N2175   1.157       .  T
C2171      N2173   1.158       .  T
C2172      N2174   1.157       .  T
