geometry optimzed in LAMMPS
_audit_creation_date              2020-11-30 
_audit_creation_method            'lammps2cif' 
_symmetry_space_group_name_H-M    'P1' 
_symmetry_Int_Tables_number       1 
_symmetry_cell_setting            triclinic 
loop_ 
_symmetry_equiv_pos_as_xyz 
  x,y,z 
_cell_length_a                    39.5250973 
_cell_length_b                    39.52959352836294 
_cell_length_c                    70.12714791212593 
_cell_angle_alpha                 89.92804052388549 
_cell_angle_beta                  90.12947486685172 
_cell_angle_gamma                 120.08795105884703 
loop_ 
_atom_site_label 
_atom_site_type_symbol 
_atom_site_fract_x 
_atom_site_fract_y 
_atom_site_fract_z 
_atom_site_charge 
Zr1        Zr  0.60566955  0.76047352  0.64380744     2.17500
O2          O  0.57098703  0.71355526  0.66926908    -0.52000
O3          O  0.55509430  0.77763549  0.63802073    -0.75200
O4          O  0.61069157  0.79164873  0.67446263    -0.82000
O5          O  0.57162822  0.67517658  0.60900727    -0.83700
O6          O  0.66865253  0.84867452  0.67560618    -0.79300
O7          O  0.55350186  0.69583938  0.63529654    -0.91000
O8          O  0.57366992  0.81686217  0.61194066    -0.76900
O9          O  0.63863179  0.82757881  0.63499190    -0.86400
O10         O  0.60242930  0.76179890  0.60990348    -0.86100
O11         O  0.67102314  0.78571687  0.65575987    -0.72900
O12         O  0.63724620  0.72599097  0.63219057    -0.85000
Zr13       Zr  0.73314924  0.82221343  0.60056561     2.26400
Zr14       Zr  0.70396124  0.85302496  0.64640285     2.06300
Zr15       Zr  0.63433405  0.72836212  0.59817078     2.10000
Zr16       Zr  0.63636500  0.82871467  0.60105867     1.78800
O17         O  0.63252231  0.66613239  0.59498628    -0.93800
O18         O  0.64576938  0.89382278  0.60609814    -0.41600
O19         O  0.66790891  0.79541149  0.58846705    -0.78200
O20         O  0.70203497  0.85682849  0.61230574    -0.96900
O21         O  0.73648770  0.82030264  0.63441390    -0.90200
O22         O  0.69998267  0.75486442  0.60932321    -0.93100
C23         C  0.54960542  0.79799706  0.62536529     1.00700
C24         C  0.54759717  0.67027095  0.62249450     1.13600
C25         C  0.63597372  0.82301889  0.68298738     1.04400
O26         O  0.70350351  0.91431414  0.64770484    -0.95200
O27         O  0.76826217  0.90472404  0.63717971    -0.91000
O28         O  0.78480850  0.88777421  0.60918639    -0.84100
C29         C  0.79155567  0.91149872  0.62311853     1.11000
O30         O  0.67439171  0.70553032  0.66870732    -0.97200
Zr31       Zr  0.70349752  0.75330102  0.64304289     1.88900
O32         O  0.78755769  0.81284448  0.60820576    -0.73900
O33         O  0.74897678  0.86881335  0.67311091    -0.53100
O34         O  0.74080751  0.77694744  0.67255959    -0.97800
O35         O  0.69870309  0.69066298  0.63601318    -0.55000
O36         O  0.77015144  0.77217050  0.63375933    -0.74400
C37         C  0.79463419  0.79379449  0.62088434     0.98000
O38         O  0.75937282  0.86222335  0.57195306    -0.63200
O39         O  0.58991383  0.71566420  0.57149259    -0.58000
O40         O  0.73240832  0.78614473  0.57220752    -0.94700
O41         O  0.67192752  0.73221735  0.56997725    -0.93100
O42         O  0.59250852  0.80264249  0.57376988    -0.93500
O43         O  0.66195517  0.86993484  0.57284806    -0.92200
C44         C  0.70675108  0.75480328  0.56371618     1.16800
H45         H  0.57566606  0.74917140  0.60548800     0.32800
H46         H  0.71619141  0.88379574  0.60823629     0.43600
H47         H  0.71218486  0.74139939  0.60365227     0.37100
H48         H  0.67089065  0.78334567  0.66946946     0.33600
H49         H  0.62726652  0.89556962  0.59716259     0.25400
H50         H  0.74950772  0.89148241  0.67940758     0.31300
H51         H  0.75860872  0.76611340  0.67259077     0.37200
H52         H  0.58124832  0.81994748  0.57235344     0.31700
H53         H  0.60331280  0.73937645  0.56344231     0.30600
H54         H  0.61621333  0.65381026  0.58354312     0.32300
H55         H  0.71815600  0.69616837  0.62586157     0.31200
H56         H  0.69054218  0.88045672  0.57338324     0.35200
H57         H  0.73707688  0.85185067  0.56292822     0.28000
H58         H  0.55329481  0.72159745  0.67508304     0.32200
H59         H  0.69508626  0.70020789  0.67313360     0.35000
H60         H  0.59096374  0.69504800  0.56395534     0.27700
H61         H  0.76364401  0.88836792  0.57537540     0.40500
H62         H  0.67556211  0.90644636  0.64893967     0.30600
H63         H  0.63456306  0.89260734  0.61886065     0.38200
H64         H  0.67305432  0.67523697  0.62960918     0.30100
H65         H  0.73523654  0.84695741  0.68223198     0.30100
H66         H  0.59095199  0.71873096  0.67915435     0.30400
Zr67       Zr  0.79705710  0.57147428  0.36423405     2.17500
O68         O  0.75064050  0.53257479  0.33928563    -0.52000
O69         O  0.81552838  0.52197019  0.37045031    -0.75200
O70         O  0.82815577  0.57781358  0.33345814    -0.82000
O71         O  0.71045527  0.53692561  0.39802329    -0.83700
O72         O  0.88415177  0.63661185  0.33199579    -0.79300
O73         O  0.73186742  0.51954660  0.37177763    -0.91000
O74         O  0.85379023  0.54036222  0.39689087    -0.76900
O75         O  0.86425661  0.60602088  0.37285349    -0.86400
O76         O  0.79839755  0.56796611  0.39809992    -0.86100
O77         O  0.82047469  0.63649335  0.35223022    -0.72900
O78         O  0.76077309  0.60109405  0.37598067    -0.85000
Zr79       Zr  0.85566986  0.69865053  0.40722454     2.26400
Zr80       Zr  0.88799077  0.67118097  0.36141700     2.06300
Zr81       Zr  0.76354133  0.59843249  0.40996624     2.10000
Zr82       Zr  0.86542757  0.60358005  0.40679744     1.78800
O83         O  0.70023418  0.59379302  0.41460085    -0.93800
O84         O  0.93047536  0.61348050  0.40081443    -0.41600
O85         O  0.83073914  0.63374537  0.41942159    -0.78200
O86         O  0.89164919  0.66897058  0.39550428    -0.96900
O87         O  0.85338121  0.70176303  0.37340295    -0.90200
O88         O  0.78814333  0.66369431  0.39870847    -0.93100
C89         C  0.83541517  0.51639122  0.38334887     1.00700
C90         C  0.70583855  0.51345745  0.38431053     1.13600
C91         C  0.85897336  0.60353868  0.32476036     1.04400
O92         O  0.94982122  0.67195304  0.35889393    -0.95200
O93         O  0.93952858  0.73529862  0.37169589    -0.91000
O94         O  0.92110346  0.75156088  0.39936995    -0.84100
C95         C  0.94563552  0.75840352  0.38582755     1.11000
O96         O  0.73842359  0.63259674  0.33983286    -0.97200
Zr97       Zr  0.78609574  0.66685544  0.36503724     1.88900
O98         O  0.84453523  0.75184658  0.39917889    -0.73900
O99         O  0.90099038  0.71557991  0.33470336    -0.53100
O100        O  0.80773485  0.70560682  0.33593023    -0.97800
O101        O  0.72328567  0.66192304  0.37194403    -0.55000
O102        O  0.80278408  0.73288197  0.37400912    -0.74400
C103        C  0.82456853  0.75798580  0.38660992     0.98000
O104        O  0.89643933  0.72545999  0.43559342    -0.63200
O105        O  0.75400413  0.55491494  0.43665878    -0.58000
O106        O  0.81806993  0.69720340  0.43499190    -0.94700
O107        O  0.76527898  0.63605475  0.43772944    -0.93100
O108        O  0.84204087  0.56216915  0.43500723    -0.93500
O109        O  0.90806470  0.63111642  0.43441858    -0.92200
C110        C  0.78690380  0.67143452  0.44351294     1.16800
H111        H  0.78638610  0.54115047  0.40233546     0.32800
H112        H  0.91854447  0.68362747  0.39966761     0.43600
H113        H  0.77401952  0.67530329  0.40427725     0.37100
H114        H  0.81782992  0.63624533  0.33853349     0.33600
H115        H  0.93205531  0.59366610  0.40882534     0.25400
H116        H  0.92313288  0.71617781  0.32782126     0.31300
H117        H  0.79576414  0.72240144  0.33636688     0.37200
H118        H  0.85670208  0.54791504  0.43519127     0.31700
H119        H  0.72859448  0.54889600  0.44223461     0.30600
H120        H  0.68925748  0.57750040  0.42616394     0.32300
H121        H  0.72915686  0.68374218  0.38075806     0.31200
H122        H  0.90951387  0.65653450  0.43660592     0.35200
H123        H  0.88388009  0.70483745  0.44542490     0.28000
H124        H  0.76061858  0.51627503  0.33368902     0.32200
H125        H  0.73101633  0.65150163  0.33493815     0.35000
H126        H  0.74883619  0.52998457  0.43081339     0.27700
H127        H  0.92102818  0.72566211  0.43264738     0.40500
H128        H  0.94258881  0.64508390  0.35499807     0.30600
H129        H  0.92935695  0.60425964  0.38758333     0.38200
H130        H  0.70924373  0.63813715  0.37989753     0.30100
H131        H  0.87832196  0.70148470  0.32603477     0.30100
H132        H  0.75372858  0.55138038  0.32915012     0.30400
Zr133      Zr  0.40055414  0.16016262  0.36437805     2.17500
O134        O  0.44052662  0.15327087  0.33992490    -0.52000
O135        O  0.44928617  0.22871157  0.36958441    -0.75200
O136        O  0.39356940  0.18286061  0.33318233    -0.82000
O137        O  0.43544333  0.10892450  0.39847253    -0.83700
O138        O  0.33689897  0.18430098  0.33248706    -0.79300
O139        O  0.45298592  0.14798328  0.37229609    -0.91000
O140        O  0.43200384  0.24859511  0.39630183    -0.76900
O141        O  0.36752791  0.19399750  0.37347598    -0.86400
O142        O  0.40449807  0.16447536  0.39826109    -0.86100
O143        O  0.33529262  0.11978237  0.35240807    -0.72900
O144        O  0.36947201  0.09365134  0.37558122    -0.85000
Zr145      Zr  0.27358740  0.09331007  0.40747109     2.26400
Zr146      Zr  0.30218691  0.15390122  0.36195956     2.06300
Zr147      Zr  0.37271770  0.09869595  0.40963989     2.10000
Zr148      Zr  0.37012711  0.19670727  0.40745036     1.78800
O149        O  0.37686232  0.03949825  0.41272197    -0.93800
O150        O  0.36045762  0.25269460  0.40434416    -0.41600
O151        O  0.33878272  0.13153069  0.41979294    -0.78200
O152        O  0.30468997  0.15924629  0.39601972    -0.96900
O153        O  0.26960203  0.08823947  0.37367948    -0.90200
O154        O  0.30709248  0.05975683  0.39847534    -0.93100
C155        C  0.45517572  0.25431649  0.38240082     1.00700
C156        C  0.45928077  0.12836907  0.38496193     1.13600
C157        C  0.36863792  0.18952685  0.32475390     1.04400
O158        O  0.30335394  0.21591167  0.35962638    -0.95200
O159        O  0.23872189  0.14258831  0.37227051    -0.91000
O160        O  0.22136957  0.10660096  0.39954702    -0.84100
C161        C  0.21519376  0.12516875  0.38618580     1.11000
O162        O  0.32874792  0.03420921  0.33855136    -0.97200
Zr163      Zr  0.30293521  0.05472866  0.36487571     1.88900
O164        O  0.22023736  0.02836584  0.40049056    -0.73900
O165        O  0.25618953  0.12461443  0.33564445    -0.53100
O166        O  0.26489126  0.04535347  0.33598954    -0.97800
O167        O  0.30638856  0.99578021  0.37110629    -0.55000
O168        O  0.23713358  0.00568850  0.37463462    -0.74400
C169        C  0.21310978  0.00218093  0.38785699     0.98000
O170        O  0.24605737  0.10794410  0.43526465    -0.63200
O171        O  0.41447802  0.12883770  0.43738006    -0.58000
O172        O  0.27388692  0.05618171  0.43494098    -0.94700
O173        O  0.33364774  0.06099026  0.43671007    -0.93100
O174        O  0.41354422  0.21110363  0.43471817    -0.93500
O175        O  0.34286077  0.21149990  0.43518448    -0.92200
C176        C  0.29874051  0.04864876  0.44282842     1.16800
H177        H  0.43134795  0.17879513  0.40254030     0.32800
H178        H  0.29058766  0.17192287  0.40028981     0.43600
H179        H  0.29499424  0.03386297  0.40393803     0.37100
H180        H  0.33511642  0.11728745  0.33871457     0.33600
H181        H  0.38271126  0.27414278  0.41128631     0.25400
H182        H  0.25618466  0.14691809  0.32920350     0.31300
H183        H  0.24240800  0.01840488  0.33693175     0.37200
H184        H  0.42954345  0.23998952  0.43507304     0.31700
H185        H  0.41650558  0.10738693  0.44356219     0.30600
H186        H  0.39263868  0.04355864  0.42438012     0.32300
H187        H  0.28748847  0.98196122  0.38149946     0.31200
H188        H  0.32408046  0.18564310  0.44060283     0.35200
H189        H  0.26547327  0.11422046  0.44557241     0.28000
H190        H  0.45646884  0.17954313  0.33419442     0.32200
H191        H  0.30646419  0.00931828  0.33389119     0.45800
H192        H  0.44088697  0.14627533  0.43212650     0.27700
H193        H  0.24788897  0.13335798  0.43241858     0.40500
H194        H  0.29516773  0.21986065  0.37237317     0.30600
H195        H  0.36578656  0.26029609  0.39075064     0.38200
H196        H  0.33232520  0.00537131  0.37710139     0.30100
H197        H  0.26928468  0.11580655  0.32653506     0.30100
H198        H  0.42208249  0.13699897  0.32977198     0.30400
Zr199      Zr  0.20801868  0.77492161  0.64204859     2.17500
O200        O  0.25491215  0.78045259  0.66634310    -0.52000
O201        O  0.18752176  0.70623129  0.63629807    -0.75200
O202        O  0.17896482  0.75191261  0.67338057    -0.82000
O203        O  0.29368740  0.82571834  0.60739139    -0.83700
O204        O  0.12138964  0.75152336  0.67403010    -0.79300
O205        O  0.27218277  0.78657971  0.63356625    -0.91000
O206        O  0.15062891  0.68678890  0.60939290    -0.76900
O207        O  0.14086898  0.74152438  0.63325258    -0.86400
O208        O  0.20682555  0.77085459  0.60815862    -0.86100
O209        O  0.18427653  0.81620156  0.65403519    -0.72900
O210        O  0.24353521  0.84147194  0.63076890    -0.85000
Zr211      Zr  0.14808433  0.84297481  0.59908658     2.26400
Zr212      Zr  0.11679366  0.78242491  0.64481322     2.06300
Zr213      Zr  0.24117623  0.83669689  0.59674376     2.10000
Zr214      Zr  0.13986678  0.73880083  0.59926368     1.78800
O215        O  0.30349954  0.89743808  0.59485280    -0.93800
O216        O  0.07476675  0.68279673  0.60415418    -0.41600
O217        O  0.17407657  0.80398660  0.58692601    -0.78200
O218        O  0.11298006  0.77710682  0.61076012    -0.96900
O219        O  0.15013338  0.84780821  0.63289887    -0.90200
O220        O  0.21547554  0.87657022  0.60770455    -0.93100
C221        C  0.16801846  0.68086696  0.62330163     1.00700
C222        C  0.29795156  0.80595428  0.62082571     1.13600
C223        C  0.14740014  0.74544948  0.68173311     1.04400
O224        O  0.05432444  0.72167581  0.64585285    -0.95200
O225        O  0.06591201  0.79647843  0.63566537    -0.91000
O226        O  0.08427859  0.83247581  0.60838148    -0.84100
C227        C  0.06006884  0.81467042  0.62201467     1.11000
O228        O  0.26348480  0.89913478  0.66769492    -0.97200
Zr229      Zr  0.21714751  0.88131414  0.64141539     1.88900
O230        O  0.15918672  0.90759431  0.60638294    -0.73900
O231        O  0.10136269  0.81083512  0.67189093    -0.53100
O232        O  0.19214605  0.89466282  0.67046051    -0.97800
O233        O  0.27991595  0.93949067  0.63463024    -0.55000
O234        O  0.19907288  0.92973467  0.63226292    -0.74400
C235        C  0.17794005  0.93323418  0.61931846     0.98000
O236        O  0.10330972  0.82788507  0.57225556    -0.63200
O237        O  0.25363073  0.80755677  0.56899707    -0.58000
O238        O  0.18388655  0.87641845  0.57031219    -0.94700
O239        O  0.23882625  0.87163276  0.56867185    -0.93100
O240        O  0.16533476  0.72266831  0.57122751    -0.93500
O241        O  0.09622155  0.72492891  0.57216063    -0.92200
C242        C  0.21573037  0.88296798  0.56211725     1.16800
H243        H  0.21904491  0.75638464  0.60377168     0.32800
H244        H  0.08599853  0.76474284  0.60672049     0.43600
H245        H  0.22912855  0.90223751  0.60198272     0.37100
H246        H  0.18688512  0.81862920  0.66772773     0.33600
H247        H  0.07519033  0.66082265  0.59761569     0.25400
H248        H  0.08007122  0.78827777  0.67871397     0.31300
H249        H  0.20356698  0.92340362  0.67066635     0.37200
H250        H  0.14925173  0.69387880  0.57005155     0.31700
H251        H  0.28084584  0.82659938  0.56528925     0.30600
H252        H  0.31487170  0.89589309  0.58254329     0.32300
H253        H  0.27549380  0.95151181  0.62320804     0.31200
H254        H  0.10573154  0.75058309  0.56589827     0.35200
H255        H  0.11516322  0.82100863  0.56161655     0.28000
H256        H  0.24449621  0.75387418  0.67171657     0.32200
H257        H  0.27012618  0.92588770  0.67150835     0.35000
H258        H  0.25500871  0.78485175  0.57399924     0.27700
H259        H  0.07981931  0.80272430  0.57560538     0.40500
H260        H  0.06065746  0.70186829  0.65055307     0.30600
H261        H  0.07382977  0.67661448  0.61789381     0.38200
H262        H  0.29679009  0.92926836  0.63011060     0.30100
H263        H  0.12427136  0.82055332  0.68048742     0.30100
H264        H  0.25293480  0.79621930  0.67678297     0.30400
Zr265      Zr  0.19446255  0.36456348  0.64315725     2.17500
O266        O  0.18796064  0.40507257  0.66746364    -0.52000
O267        O  0.26255107  0.41359085  0.63691595    -0.75200
O268        O  0.21908055  0.35927757  0.67427162    -0.82000
O269        O  0.14243946  0.39819928  0.60823489    -0.83700
O270        O  0.21763288  0.30116070  0.67575380    -0.79300
O271        O  0.18111259  0.41622638  0.63460201    -0.91000
O272        O  0.28241535  0.39501454  0.61062137    -0.76900
O273        O  0.22722599  0.32996154  0.63489599    -0.86400
O274        O  0.19901016  0.36702993  0.60928428    -0.86100
O275        O  0.15323691  0.29965324  0.65554935    -0.72900
O276        O  0.12821302  0.33389259  0.63167239    -0.85000
Zr277      Zr  0.12611999  0.23637648  0.60075781     2.26400
Zr278      Zr  0.18610933  0.26494112  0.64663102     2.06300
Zr279      Zr  0.13331826  0.33571831  0.59767123     2.10000
Zr280      Zr  0.23066822  0.33152598  0.60095064     1.78800
O281        O  0.07380296  0.33912936  0.59402880    -0.93800
O282        O  0.28701669  0.32337612  0.60663089    -0.41600
O283        O  0.16567233  0.30094783  0.58823137    -0.78200
O284        O  0.19180376  0.26642546  0.61260809    -0.96900
O285        O  0.12079943  0.23360645  0.63460360    -0.90200
O286        O  0.09318953  0.27071283  0.60920031    -0.93100
C287        C  0.28809138  0.41898929  0.62415574     1.00700
C288        C  0.16137110  0.42213830  0.62180051     1.13600
C289        C  0.22492371  0.33404672  0.68299249     1.04400
O290        O  0.24651050  0.26281521  0.64815131    -0.95200
O291        O  0.17119972  0.19963478  0.63698176    -0.91000
O292        O  0.13650297  0.18272343  0.60925556    -0.84100
C293        C  0.15371034  0.17595304  0.62306820     1.11000
O294        O  0.07100042  0.30038179  0.66748880    -0.97200
Zr295      Zr  0.08821630  0.26812690  0.64287282     1.88900
O296        O  0.06135560  0.18362926  0.60801699    -0.73900
O297        O  0.15769982  0.22099764  0.67373644    -0.53100
O298        O  0.07445559  0.23222772  0.67281590    -0.97800
O299        O  0.02950392  0.27100039  0.63508493    -0.55000
O300        O  0.04013664  0.20130789  0.63418657    -0.74400
C301        C  0.03614222  0.17683905  0.62109984     0.98000
O302        O  0.14139792  0.20863188  0.57326149    -0.63200
O303        O  0.16574009  0.37774211  0.57040681    -0.58000
O304        O  0.09002371  0.23708184  0.57281125    -0.94700
O305        O  0.09676272  0.29748767  0.57017992    -0.93100
O306        O  0.24564456  0.37031415  0.57192400    -0.93500
O307        O  0.24675338  0.30094707  0.57511572    -0.92200
C308        C  0.08380045  0.26230673  0.56433369     1.16800
H309        H  0.21350111  0.39365070  0.60471879     0.32800
H310        H  0.20394967  0.25161658  0.60865245     0.43600
H311        H  0.06741033  0.25878602  0.60358685     0.37100
H312        H  0.15100960  0.30018451  0.66923858     0.33600
H313        H  0.30915408  0.34607866  0.60031239     0.25400
H314        H  0.18030908  0.22256060  0.68065696     0.31300
H315        H  0.04597599  0.21346320  0.67254364     0.37200
H316        H  0.27454246  0.38456940  0.57109593     0.31700
H317        H  0.17252408  0.36187935  0.56203132     0.30600
H318        H  0.07913680  0.35719279  0.58318908     0.32300
H319        H  0.01499420  0.24991424  0.62567038     0.31200
H320        H  0.22132688  0.28304125  0.56901607     0.35200
H321        H  0.14633954  0.22706034  0.56263973     0.28000
H322        H  0.21446384  0.42159894  0.67287843     0.32200
H323        H  0.04523710  0.28017255  0.67243406     0.35000
H324        H  0.14465102  0.37920224  0.56348234     0.27700
H325        H  0.16749487  0.21205142  0.57608433     0.40500
H326        H  0.26655301  0.28926697  0.65242321     0.30600
H327        H  0.29255691  0.32840314  0.62043032     0.38200
H328        H  0.03915114  0.29547894  0.62769441     0.30100
H329        H  0.14779187  0.23408430  0.68222405     0.30100
H330        H  0.17241630  0.38694687  0.67785028     0.30400
Zr331      Zr  0.81282099  0.17541353  0.36468717     2.17500
O332        O  0.82185578  0.22276976  0.33998228    -0.52000
O333        O  0.74499175  0.15771409  0.37048195    -0.75200
O334        O  0.78800522  0.14542308  0.33360835    -0.82000
O335        O  0.86356500  0.26052439  0.39967959    -0.83700
O336        O  0.78908078  0.08857744  0.33246929    -0.79300
O337        O  0.82602323  0.24023764  0.37290515    -0.91000
O338        O  0.72460443  0.12033543  0.39718640    -0.76900
O339        O  0.77840246  0.10823481  0.37336957    -0.86400
O340        O  0.80833359  0.17415949  0.39857137    -0.86100
O341        O  0.85298960  0.15036697  0.35283060    -0.72900
O342        O  0.87916038  0.21022448  0.37628650    -0.85000
Zr343      Zr  0.87831558  0.11325565  0.40767278     2.26400
Zr344      Zr  0.81838876  0.08292207  0.36199722     2.06300
Zr345      Zr  0.87397809  0.20757005  0.41029458     2.10000
Zr346      Zr  0.77508357  0.10716031  0.40732862     1.78800
O347        O  0.93539510  0.26935443  0.41249179    -0.93800
O348        O  0.71804631  0.04278633  0.40205579    -0.41600
O349        O  0.84022694  0.14028035  0.41977275    -0.78200
O350        O  0.81241725  0.07893324  0.39601110    -0.96900
O351        O  0.88379213  0.11570222  0.37392093    -0.90200
O352        O  0.91273827  0.18078613  0.39922359    -0.93100
C353        C  0.71946122  0.13860652  0.38343678     1.00700
C354        C  0.84505099  0.26563512  0.38588209     1.13600
C355        C  0.78224903  0.11427996  0.32501344     1.04400
O356        O  0.75566433  0.02238128  0.36124076    -0.95200
O357        O  0.83276618  0.03213766  0.37091280    -0.91000
O358        O  0.86487303  0.04798111  0.39934248    -0.84100
C359        C  0.84855651  0.02480935  0.38515763     1.11000
O360        O  0.93474038  0.22917373  0.33933573    -0.97200
Zr361      Zr  0.91797435  0.18286912  0.36554665     1.88900
O362        O  0.94283328  0.12374329  0.40050603    -0.73900
O363        O  0.84558348  0.06485017  0.33536705    -0.53100
O364        O  0.93040101  0.15695152  0.33654756    -0.97800
O365        O  0.97679947  0.24533561  0.37215110    -0.55000
O366        O  0.96673688  0.16598956  0.37555978    -0.74400
C367        C  0.96955694  0.14408951  0.38828615     0.98000
O368        O  0.86213367  0.06951070  0.43501420    -0.63200
O369        O  0.84611923  0.22095307  0.43825693    -0.58000
O370        O  0.91344934  0.14891295  0.43596032    -0.94700
O371        O  0.90743462  0.20304429  0.43851114    -0.93100
O372        O  0.76134549  0.13416378  0.43553620    -0.93500
O373        O  0.75845679  0.06404782  0.43483201    -0.92200
C374        C  0.91936841  0.18008321  0.44457263     1.16800
H375        H  0.79428189  0.18683500  0.40292783     0.32800
H376        H  0.79956019  0.05192828  0.40002629     0.43600
H377        H  0.93840639  0.19410674  0.40497978     0.37100
H378        H  0.85543762  0.15293590  0.33914006     0.33600
H379        H  0.69617748  0.04390800  0.40829471     0.25400
H380        H  0.82267212  0.04371532  0.32865045     0.31300
H381        H  0.95884930  0.16658449  0.33672085     0.37200
H382        H  0.73273712  0.12364424  0.43526611     0.31700
H383        H  0.86605432  0.24769739  0.44222213     0.30600
H384        H  0.93362727  0.28112630  0.42463547     0.32300
H385        H  0.98778601  0.24139317  0.38409055     0.31200
H386        H  0.78289134  0.06404990  0.43794647     0.35200
H387        H  0.85701144  0.08278346  0.44564348     0.28000
H388        H  0.79571358  0.21347417  0.33426887     0.32200
H389        H  0.96136499  0.23584344  0.33528471     0.35000
H390        H  0.82417329  0.22376144  0.43331994     0.27700
H391        H  0.83604583  0.04687286  0.43207395     0.40500
H392        H  0.76004551  0.00470569  0.35293357     0.30600
H393        H  0.71246749  0.04199803  0.38824213     0.38200
H394        H  0.96700690  0.26308375  0.37579086     0.30100
H395        H  0.85601103  0.08743229  0.32654641     0.30100
H396        H  0.83742506  0.21949409  0.32986660     0.30400
Zr397      Zr  0.73233960  0.82448003  0.90806206     2.17500
O398        O  0.76110330  0.86684454  0.93569297    -0.52000
O399        O  0.78483217  0.81139561  0.90187114    -0.75200
O400        O  0.73009069  0.78619723  0.93572833    -0.82000
O401        O  0.76809008  0.90998049  0.87373201    -0.83700
O402        O  0.67040619  0.73112602  0.93696617    -0.79300
O403        O  0.78573609  0.88951148  0.90031631    -0.91000
O404        O  0.76557747  0.76798135  0.87745400    -0.76900
O405        O  0.69782879  0.75717423  0.89952861    -0.86400
O406        O  0.73696921  0.82279936  0.87428284    -0.86100
O407        O  0.66685778  0.79990681  0.91951724    -0.72900
O408        O  0.70320029  0.86062795  0.89583244    -0.85000
Zr409      Zr  0.60680531  0.76577800  0.86370827     2.26400
Zr410      Zr  0.63215108  0.73265115  0.91004754     2.06300
Zr411      Zr  0.70654784  0.85736582  0.86195789     2.10000
Zr412      Zr  0.70231174  0.75562779  0.86588347     1.78800
O413        O  0.70236842  0.91658724  0.85918135    -0.93800
O414        O  0.69368591  0.69113436  0.87209050    -0.41600
O415        O  0.67233999  0.79016741  0.85265143    -0.78200
O416        O  0.63594916  0.72941862  0.87607316    -0.96900
O417        O  0.60241230  0.76765873  0.89752681    -0.90200
O418        O  0.64094091  0.83313620  0.87230987    -0.93100
C419        C  0.79027948  0.78957004  0.89025079     1.00700
C420        C  0.79171114  0.91513615  0.88746271     1.13600
C421        C  0.70515152  0.75355084  0.94340663     1.04400
O422        O  0.62346549  0.66727551  0.91261608    -0.95200
O423        O  0.56638298  0.68391803  0.90017456    -0.91000
O424        O  0.55163633  0.70322577  0.87231703    -0.84100
C425        C  0.54342193  0.67904461  0.88611692     1.11000
O426        O  0.66776468  0.87900585  0.93302281    -0.97200
Zr427      Zr  0.63716281  0.83472266  0.90616097     1.88900
O428        O  0.55491560  0.78063558  0.86947261    -0.73900
O429        O  0.59242351  0.72374578  0.93816607    -0.53100
O430        O  0.59496857  0.81214736  0.93412767    -0.97800
O431        O  0.64572984  0.89929055  0.89995501    -0.55000
O432        O  0.57328843  0.82074815  0.89524298    -0.74400
C433        C  0.54895915  0.80076933  0.88200645     0.98000
O434        O  0.57737815  0.71880461  0.83764405    -0.63200
O435        O  0.75402478  0.87737047  0.83613515    -0.58000
O436        O  0.61219563  0.79864202  0.83344376    -0.94700
O437        O  0.67460805  0.84927279  0.83144418    -0.93100
O438        O  0.74396633  0.77993726  0.83785075    -0.93500
O439        O  0.67510499  0.71096107  0.83898322    -0.92200
C440        C  0.64050494  0.82692284  0.82435976     1.16800
H441        H  0.76384897  0.83506096  0.87014239     0.32800
H442        H  0.62107012  0.70253644  0.87191735     0.43600
H443        H  0.62965019  0.84710205  0.86620406     0.37100
H444        H  0.66713398  0.80188267  0.93325228     0.33600
H445        H  0.71592782  0.69124808  0.86555433     0.25400
H446        H  0.58536672  0.69746709  0.94299628     0.31300
H447        H  0.58120028  0.82728961  0.93405961     0.37200
H448        H  0.75963222  0.76672979  0.83815947     0.31700
H449        H  0.76285733  0.90534796  0.83398094     0.30600
H450        H  0.72469697  0.93420638  0.85097317     0.32300
H451        H  0.63202060  0.89680307  0.88775735     0.31200
H452        H  0.66004033  0.72051847  0.83172128     0.35200
H453        H  0.59505100  0.73046203  0.82659460     0.28000
H454        H  0.78055814  0.86040542  0.94083304     0.32200
H455        H  0.64835168  0.88596421  0.93759974     0.35000
H456        H  0.77704669  0.87731541  0.84168775     0.27700
H457        H  0.58088212  0.69651716  0.84125858     0.40500
H458        H  0.62787419  0.66083350  0.89955629     0.30600
H459        H  0.69953568  0.69134028  0.88583932     0.38200
H460        H  0.67381730  0.91588706  0.89686273     0.30100
H461        H  0.61080096  0.74203702  0.94780839     0.30100
H462        H  0.74000135  0.85686938  0.94533583     0.30400
Zr463      Zr  0.85687442  0.69866936  0.09933464     2.17500
O464        O  0.90033290  0.72977058  0.07227852    -0.52000
O465        O  0.84291989  0.75072517  0.10546867    -0.75200
O466        O  0.82052521  0.69596723  0.07088664    -0.82000
O467        O  0.94220369  0.73342966  0.13354036    -0.83700
O468        O  0.76531371  0.63634383  0.06967961    -0.79300
O469        O  0.92239437  0.75112455  0.10675666    -0.91000
O470        O  0.80254263  0.73266458  0.13106269    -0.76900
O471        O  0.78959961  0.66420091  0.10801270    -0.86400
O472        O  0.85545834  0.70287385  0.13318635    -0.86100
O473        O  0.83221571  0.63337685  0.08761232    -0.72900
O474        O  0.89290396  0.66915365  0.11124683    -0.85000
Zr475      Zr  0.79800972  0.57232324  0.14331500     2.26400
Zr476      Zr  0.76504592  0.59862035  0.09725169     2.06300
Zr477      Zr  0.88970411  0.67177620  0.14514717     2.10000
Zr478      Zr  0.78832038  0.66830216  0.14173855     1.78800
O479        O  0.94793202  0.66567226  0.14695188    -0.93800
O480        O  0.72481363  0.66224848  0.13560140    -0.41600
O481        O  0.82264311  0.63780379  0.15452145    -0.78200
O482        O  0.76162398  0.60181860  0.13132162    -0.96900
O483        O  0.79992551  0.56853095  0.10949466    -0.90200
O484        O  0.86524649  0.60638967  0.13453025    -0.93100
C485        C  0.82290377  0.75695717  0.11789304     1.00700
C486        C  0.94777071  0.75692456  0.11971290     1.13600
C487        C  0.78824877  0.67075920  0.06302640     1.04400
O488        O  0.70048553  0.59182211  0.09468377    -0.95200
O489        O  0.71526001  0.53302301  0.10666271    -0.91000
O490        O  0.73616013  0.51693367  0.13358720    -0.84100
C491        C  0.71126992  0.50922535  0.12014003     1.11000
O492        O  0.91137007  0.63358974  0.07385757    -0.97200
Zr493      Zr  0.86683835  0.60327870  0.10063897     1.88900
O494        O  0.81457730  0.52166567  0.13758612    -0.73900
O495        O  0.75535064  0.55740477  0.06961157    -0.53100
O496        O  0.84138245  0.56126080  0.07266957    -0.97800
O497        O  0.93115903  0.61076127  0.10645690    -0.55000
O498        O  0.85343997  0.53965947  0.11135769    -0.74400
C499        C  0.83445321  0.51579572  0.12488022     0.98000
O500        O  0.75358343  0.54196207  0.17024288    -0.63200
O501        O  0.91201796  0.71851676  0.17135110    -0.58000
O502        O  0.82995598  0.57791031  0.17390843    -0.94700
O503        O  0.88108385  0.64003268  0.17579039    -0.93100
O504        O  0.81202654  0.70779305  0.17055440    -0.93500
O505        O  0.74389502  0.64146016  0.16873781    -0.92200
C506        C  0.85837229  0.60615486  0.18298684     1.16800
H507        H  0.86798710  0.72970486  0.13744705     0.32800
H508        H  0.73475389  0.58687226  0.13547071     0.43600
H509        H  0.87930688  0.59507213  0.14051686     0.37100
H510        H  0.83415462  0.63376637  0.07387643     0.33600
H511        H  0.72593194  0.68498117  0.14214470     0.25400
H512        H  0.73166807  0.55462420  0.06328145     0.31300
H513        H  0.85557411  0.54654863  0.07233241     0.37200
H514        H  0.79951189  0.72411229  0.17044060     0.31700
H515        H  0.94074510  0.72984286  0.17174238     0.30600
H516        H  0.95521043  0.66925452  0.16062059     0.32300
H517        H  0.92812480  0.59500156  0.11798248     0.31200
H518        H  0.74199929  0.61592933  0.17128621     0.35200
H519        H  0.76158695  0.56294503  0.17986580     0.28000
H520        H  0.89377036  0.74928753  0.06736083     0.32200
H521        H  0.91753113  0.61369284  0.06913871     0.35000
H522        H  0.90820297  0.74013423  0.16687159     0.27700
H523        H  0.72775811  0.53731103  0.16587765     0.40500
H524        H  0.69207505  0.59118828  0.10803054     0.30600
H525        H  0.72511931  0.66811275  0.12185194     0.38200
H526        H  0.94762006  0.63820076  0.11068278     0.30100
H527        H  0.77698985  0.57389904  0.06081016     0.30100
H528        H  0.89128874  0.70938599  0.06227536     0.30400
Zr529      Zr  0.27183944  0.09438934  0.09866723     2.17500
O530        O  0.24182720  0.10580180  0.07082899    -0.52000
O531        O  0.21817672  0.02946973  0.10559994    -0.75200
O532        O  0.27407390  0.05845871  0.07093399    -0.82000
O533        O  0.23909742  0.14896503  0.13139975    -0.83700
O534        O  0.33220090  0.05978911  0.07071970    -0.79300
O535        O  0.22095926  0.11024895  0.10503720    -0.91000
O536        O  0.23463673  0.00787384  0.13208970    -0.76900
O537        O  0.30441705  0.06046483  0.10850408    -0.86400
O538        O  0.26696071  0.09055078  0.13254677    -0.86100
O539        O  0.33756633  0.13313303  0.08708226    -0.72900
O540        O  0.30291484  0.16061207  0.10997046    -0.85000
Zr541      Zr  0.39800914  0.16131893  0.14283070     2.26400
Zr542      Zr  0.37039036  0.09937462  0.09775964     2.06300
Zr543      Zr  0.29956908  0.15631472  0.14396521     2.10000
Zr544      Zr  0.29980187  0.05704860  0.14226286     1.78800
O545        O  0.30806299  0.22146762  0.14714447    -0.93800
O546        O  0.30350261  0.99787801  0.13783984    -0.41600
O547        O  0.33224247  0.12248979  0.15410538    -0.78200
O548        O  0.36653266  0.09475253  0.13183279    -0.96900
O549        O  0.40218504  0.16521186  0.10900516    -0.90200
O550        O  0.36534790  0.19550793  0.13333747    -0.93100
C551        C  0.21089389  0.00388040  0.11860160     1.00700
C552        C  0.21577910  0.13106451  0.11747581     1.13600
C553        C  0.29830657  0.04940237  0.06365221     1.04400
O554        O  0.37351271  0.03945960  0.09710452    -0.95200
O555        O  0.43550357  0.11407861  0.10795670    -0.91000
O556        O  0.45255225  0.15260401  0.13433678    -0.84100
C557        C  0.45946849  0.13388839  0.12143411     1.11000
O558        O  0.33866527  0.21170790  0.07229980    -0.97200
Zr559      Zr  0.36910342  0.19860600  0.09944750     1.88900
O560        O  0.45079102  0.22731831  0.13646002    -0.73900
O561        O  0.41189279  0.12768974  0.06987161    -0.53100
O562        O  0.41241769  0.21339608  0.07219986    -0.97800
O563        O  0.36461038  0.25745255  0.10379892    -0.55000
O564        O  0.43288961  0.24881957  0.11039640    -0.74400
C565        C  0.45703182  0.25316870  0.12372224     0.98000
O566        O  0.42591043  0.14596935  0.17037448    -0.63200
O567        O  0.25108835  0.13305928  0.16941268    -0.58000
O568        O  0.39358411  0.18949089  0.17288597    -0.94700
O569        O  0.33077863  0.17623253  0.17499923    -0.93100
O570        O  0.25962283  0.04634706  0.17040131    -0.93500
O571        O  0.32601643  0.04008783  0.16977179    -0.92200
C572        C  0.36479230  0.18778980  0.18218417     1.16800
H573        H  0.24004217  0.07707538  0.13668582     0.32800
H574        H  0.38071577  0.08236389  0.13645287     0.43600
H575        H  0.37736859  0.22116960  0.13906370     0.37100
H576        H  0.33747145  0.13409113  0.07331647     0.33600
H577        H  0.28094744  0.97742483  0.14502812     0.25400
H578        H  0.41864229  0.10777956  0.06587699     0.31300
H579        H  0.42723852  0.24230517  0.07145255     0.37200
H580        H  0.24427090  0.01757662  0.17188306     0.31700
H581        H  0.24196730  0.15224618  0.16992832     0.30600
H582        H  0.29655718  0.22533399  0.13536430     0.32300
H583        H  0.38654858  0.27785298  0.09627179     0.31200
H584        H  0.35005445  0.06470497  0.17318837     0.35200
H585        H  0.40443068  0.13373826  0.17978892     0.28000
H586        H  0.22184278  0.07952133  0.06629990     0.32200
H587        H  0.35958709  0.23583155  0.06630029     0.35000
H588        H  0.22841735  0.10883004  0.16445685     0.27700
H589        H  0.42961137  0.12405069  0.16634210     0.40500
H590        H  0.37224000  0.03191823  0.11066325     0.30600
H591        H  0.29656335  0.99076819  0.12428238     0.38200
H592        H  0.37220157  0.26536703  0.11722321     0.30100
H593        H  0.39428897  0.12734245  0.05971162     0.30100
H594        H  0.26231760  0.11596972  0.06087057     0.30400
Zr595      Zr  0.14627159  0.84236242  0.90689926     2.17500
O596        O  0.10457094  0.82875508  0.93480015    -0.52000
O597        O  0.15804843  0.90737000  0.89984295    -0.75200
O598        O  0.18332637  0.87792230  0.93495319    -0.82000
O599        O  0.05998190  0.79084383  0.87331453    -0.83700
O600        O  0.24187158  0.88008490  0.93414314    -0.79300
O601        O  0.07951068  0.82680193  0.90058436    -0.91000
O602        O  0.19745820  0.93003479  0.87387907    -0.76900
O603        O  0.21279657  0.87717849  0.89689571    -0.86400
O604        O  0.14519325  0.84620519  0.87301123    -0.86100
O605        O  0.17446824  0.80478076  0.91840588    -0.72900
O606        O  0.11170618  0.77607434  0.89577299    -0.85000
Zr607      Zr  0.20584438  0.77612232  0.86234393     2.26400
Zr608      Zr  0.24086392  0.83929356  0.90759872     2.06300
Zr609      Zr  0.11187251  0.78041809  0.86173652     2.10000
Zr610      Zr  0.21154489  0.88009563  0.86311023     1.78800
O611        O  0.05271078  0.71659545  0.86015614    -0.93800
O612        O  0.27498995  0.93866117  0.86770623    -0.41600
O613        O  0.17821962  0.81450031  0.85129506    -0.78200
O614        O  0.24102742  0.84289874  0.87344025    -0.96900
O615        O  0.20745185  0.77334246  0.89622078    -0.90200
O616        O  0.13933067  0.74185258  0.87232615    -0.93100
C617        C  0.17742481  0.93364428  0.88727247     1.00700
C618        C  0.05424220  0.80801047  0.88744277     1.13600
C619        C  0.21754449  0.88884782  0.94167672     1.04400
O620        O  0.30459869  0.89873266  0.90748516    -0.95200
O621        O  0.29028834  0.82290379  0.89823607    -0.91000
O622        O  0.27019032  0.78710515  0.87089188    -0.84100
C623        C  0.29501854  0.80436913  0.88437847     1.11000
O624        O  0.10447759  0.72514950  0.93584958    -0.97200
Zr625      Zr  0.14138814  0.73926603  0.90623503     1.88900
O626        O  0.19136444  0.70932761  0.86860351    -0.73900
O627        O  0.25527122  0.81351166  0.93610069    -0.53100
O628        O  0.17578921  0.72696063  0.93174489    -0.97800
O629        O  0.07554230  0.68304042  0.90396919    -0.55000
O630        O  0.15153299  0.68740584  0.89445980    -0.74400
C631        C  0.17094478  0.68293210  0.88102957     0.98000
O632        O  0.24757841  0.78965405  0.83435647    -0.63200
O633        O  0.09212122  0.80669873  0.83523037    -0.58000
O634        O  0.17192825  0.74813156  0.83224153    -0.94700
O635        O  0.11829385  0.75516346  0.83120435    -0.93100
O636        O  0.18417968  0.89394380  0.83500871    -0.93500
O637        O  0.25394784  0.89590218  0.83542235    -0.92200
C638        C  0.14200538  0.74574047  0.82362893     1.16800
H639        H  0.13178768  0.85972053  0.86888351     0.32800
H640        H  0.26761154  0.85543934  0.86883710     0.43600
H641        H  0.12533252  0.71604824  0.86675517     0.37100
H642        H  0.17365288  0.80394014  0.93217092     0.33600
H643        H  0.27336446  0.95927886  0.86041768     0.25400
H644        H  0.27921769  0.83598233  0.94142461     0.31300
H645        H  0.16205922  0.69815628  0.93309019     0.37200
H646        H  0.19390600  0.92239061  0.83559483     0.31700
H647        H  0.06422459  0.78726175  0.83302079     0.30600
H648        H  0.03890355  0.71780867  0.84860582     0.32300
H649        H  0.07779772  0.66077348  0.90890999     0.31200
H650        H  0.26319346  0.87681242  0.83574805     0.35200
H651        H  0.23923008  0.80329569  0.82528458     0.28000
H652        H  0.11007101  0.85456870  0.93962120     0.32200
H653        H  0.10069833  0.69975049  0.94038506     0.35000
H654        H  0.09189940  0.82987816  0.84039671     0.27700
H655        H  0.27411302  0.81028731  0.83819951     0.40500
H656        H  0.31022488  0.90597599  0.89386826     0.30600
H657        H  0.27516694  0.94589598  0.88123313     0.38200
H658        H  0.07077464  0.67783449  0.89013753     0.30100
H659        H  0.23442907  0.80898112  0.94528575     0.30100
H660        H  0.11532875  0.81868221  0.94461649     0.30400
Zr661      Zr  0.13000161  0.23903481  0.90800127     2.17500
O662        O  0.14526812  0.21183432  0.93571377    -0.52000
O663        O  0.06487975  0.18556803  0.90150601    -0.75200
O664        O  0.09462084  0.24093596  0.93611099    -0.82000
O665        O  0.18307924  0.20534919  0.87503067    -0.83700
O666        O  0.09386277  0.29806685  0.93542825    -0.79300
O667        O  0.14299373  0.18648698  0.90088703    -0.91000
O668        O  0.04374286  0.20094449  0.87450744    -0.76900
O669        O  0.09543141  0.27076715  0.89787496    -0.86400
O670        O  0.12656643  0.23405683  0.87408822    -0.86100
O671        O  0.16783347  0.30489481  0.91943931    -0.72900
O672        O  0.19628305  0.27021527  0.89683867    -0.85000
Zr673      Zr  0.19634934  0.36441550  0.86344933     2.26400
Zr674      Zr  0.13358936  0.33687969  0.90844185     2.06300
Zr675      Zr  0.19239163  0.26667025  0.86281024     2.10000
Zr676      Zr  0.09240591  0.26604275  0.86412845     1.78800
O677        O  0.25662742  0.27235537  0.86176321    -0.93800
O678        O  0.03378922  0.27023226  0.86968065    -0.41600
O679        O  0.15800493  0.29852978  0.85230982    -0.78200
O680        O  0.12965781  0.33284222  0.87433466    -0.96900
O681        O  0.19956846  0.36887884  0.89734649    -0.90200
O682        O  0.23083696  0.33247325  0.87349874    -0.93100
C683        C  0.03958452  0.17772355  0.88826832     1.00700
C684        C  0.16398676  0.18139318  0.88852717     1.13600
C685        C  0.08452377  0.26476978  0.94295002     1.04400
O686        O  0.07342778  0.33959137  0.90824036    -0.95200
O687        O  0.14898792  0.40203313  0.89805924    -0.91000
O688        O  0.18588390  0.41822092  0.87112766    -0.84100
C689        C  0.16784286  0.42547094  0.88426594     1.11000
O690        O  0.24459953  0.30718566  0.93561447    -0.97200
Zr691      Zr  0.23333943  0.33647081  0.90742923     1.88900
O692        O  0.26218700  0.41756073  0.87029546    -0.73900
O693        O  0.15910427  0.37818300  0.93661534    -0.53100
O694        O  0.24798087  0.37997500  0.93461968    -0.97800
O695        O  0.29174252  0.33083633  0.90403539    -0.55000
O696        O  0.28333926  0.40031013  0.89672159    -0.74400
C697        C  0.28786523  0.42415677  0.88324034     0.98000
O698        O  0.17968389  0.39012741  0.83548236    -0.63200
O699        O  0.16814547  0.22036560  0.83637925    -0.58000
O700        O  0.22639474  0.36018491  0.83383372    -0.94700
O701        O  0.21788754  0.29898126  0.83237132    -0.93100
O702        O  0.07957757  0.22520598  0.83601874    -0.93500
O703        O  0.07477766  0.29106920  0.83638094    -0.92200
C704        C  0.22824664  0.33261475  0.82503360     1.16800
H705        H  0.11315555  0.20711582  0.86996507     0.32800
H706        H  0.11712331  0.34676706  0.86955113     0.43600
H707        H  0.25665612  0.34461482  0.86795763     0.37100
H708        H  0.16864494  0.30497283  0.93320853     0.33600
H709        H  0.01334050  0.24913652  0.86175777     0.25400
H710        H  0.13634226  0.37897951  0.94195698     0.31300
H711        H  0.27688473  0.39474723  0.93547393     0.37200
H712        H  0.05075256  0.20855203  0.83550714     0.31700
H713        H  0.18755412  0.21168914  0.83495025     0.30600
H714        H  0.25241910  0.24863386  0.85493739     0.32300
H715        H  0.31304910  0.35499961  0.90984940     0.31200
H716        H  0.10012134  0.31055906  0.83075367     0.35200
H717        H  0.17013000  0.36907460  0.82580653     0.28000
H718        H  0.11990009  0.18948371  0.93980522     0.32200
H719        H  0.27015956  0.32726156  0.94084630     0.35000
H720        H  0.14440254  0.19710666  0.84128406     0.27700
H721        H  0.15581530  0.39080141  0.83907251     0.40500
H722        H  0.06768785  0.34070750  0.89458193     0.30600
H723        H  0.02610840  0.26111620  0.88296442     0.38200
H724        H  0.29769019  0.33388210  0.89023091     0.30100
H725        H  0.16447034  0.36257231  0.94590847     0.30100
H726        H  0.15260625  0.23158848  0.94593107     0.30400
Zr727      Zr  0.87650651  0.11371525  0.09953735     2.17500
O728        O  0.86323619  0.07164042  0.07184404    -0.52000
O729        O  0.94223993  0.12661731  0.10571740    -0.75200
O730        O  0.91216255  0.15153474  0.07164338    -0.82000
O731        O  0.82264455  0.02675854  0.13307142    -0.83700
O732        O  0.91049751  0.20817008  0.07106598    -0.79300
O733        O  0.86124891  0.04709755  0.10667339    -0.91000
O734        O  0.96496239  0.16572467  0.13181864    -0.76900
O735        O  0.91096925  0.18043689  0.10913103    -0.86400
O736        O  0.88109578  0.11345148  0.13340022    -0.86100
O737        O  0.83825123  0.14118736  0.08790313    -0.72900
O738        O  0.81052752  0.07909046  0.11100037    -0.85000
Zr739      Zr  0.81090566  0.17387159  0.14409028     2.26400
Zr740      Zr  0.87239051  0.20781186  0.09850468     2.06300
Zr741      Zr  0.81549617  0.08026843  0.14499242     2.10000
Zr742      Zr  0.91514088  0.18005407  0.14286178     1.78800
O743        O  0.75111567  0.02204152  0.14731115    -0.93800
O744        O  0.97255274  0.24408990  0.13764750    -0.41600
O745        O  0.84986282  0.14684621  0.15516933    -0.78200
O746        O  0.87729176  0.20891791  0.13262082    -0.96900
O747        O  0.80685183  0.17421931  0.11020956    -0.90200
O748        O  0.77660129  0.10716619  0.13436177    -0.93100
C749        C  0.96873963  0.14617178  0.11819074     1.00700
C750        C  0.84074682  0.02128152  0.11932591     1.13600
C751        C  0.92106064  0.18470944  0.06418666     1.04400
O752        O  0.93310238  0.27048058  0.09803992    -0.95200
O753        O  0.85772888  0.25809013  0.10827715    -0.91000
O754        O  0.82098791  0.23768299  0.13526400    -0.84100
C755        C  0.83886835  0.26275601  0.12196893     1.11000
O756        O  0.75829060  0.06721302  0.07203746    -0.97200
Zr757      Zr  0.77310893  0.10788926  0.10043715     1.88900
O758        O  0.74402560  0.15910378  0.13796689    -0.73900
O759        O  0.84401327  0.22201015  0.07092042    -0.53100
O760        O  0.75925743  0.13986125  0.07428913    -0.97800
O761        O  0.71624296  0.04254013  0.10315324    -0.55000
O762        O  0.72184968  0.11846740  0.11236858    -0.74400
C763        C  0.71748809  0.13815081  0.12567700     0.98000
O764        O  0.82576705  0.21736158  0.17152290    -0.63200
O765        O  0.84262300  0.06018438  0.17100981    -0.58000
O766        O  0.78323213  0.14059036  0.17432332    -0.94700
O767        O  0.79021163  0.08694990  0.17535844    -0.93100
O768        O  0.93135241  0.15429372  0.17079126    -0.93500
O769        O  0.93094905  0.22265040  0.17049462    -0.92200
C770        C  0.78084870  0.11068755  0.18292863     1.16800
H771        H  0.89481031  0.10022123  0.13748185     0.32800
H772        H  0.88990836  0.23558886  0.13713019     0.43600
H773        H  0.75094261  0.09324457  0.14006615     0.37100
H774        H  0.83708119  0.14006978  0.07414053     0.33600
H775        H  0.99428356  0.24249631  0.14380614     0.25400
H776        H  0.86553816  0.24680832  0.06575127     0.31300
H777        H  0.73047534  0.12815551  0.07429601     0.37200
H778        H  0.96023889  0.16972993  0.17165652     0.31700
H779        H  0.82379897  0.03199135  0.17281572     0.30600
H780        H  0.75538662  0.00323354  0.15478420     0.32300
H781        H  0.69448351  0.04460405  0.09734797     0.31200
H782        H  0.90730464  0.22473609  0.17259611     0.35200
H783        H  0.83721347  0.20785790  0.18126217     0.28000
H784        H  0.88918463  0.07682769  0.06741437     0.32200
H785        H  0.73531719  0.06664934  0.06603073     0.35000
H786        H  0.86625603  0.06107530  0.16572564     0.27700
H787        H  0.84818208  0.24285122  0.16762756     0.40500
H788        H  0.93613261  0.28080742  0.11116962     0.30600
H789        H  0.97791360  0.24495778  0.12381820     0.38200
H790        H  0.71008684  0.03897565  0.11693536     0.30100
H791        H  0.84013062  0.20203812  0.06131463     0.30100
H792        H  0.85396708  0.08270745  0.06179761     0.30400
C793        C  0.97450677  0.18057218  0.01988481    -0.11500
C794        C  0.99124053  0.21893268  0.01269015     0.05700
C795        C  0.98480634  0.24597917  0.02280812    -0.10300
C796        C  0.96196658  0.23491118  0.03939277    -0.11900
C797        C  0.94519416  0.19655835  0.04649521    -0.01700
C798        C  0.95199095  0.16961375  0.03656361    -0.10800
C799        C  0.01510667  0.23062917  0.99473608     0.05700
H800        H  0.99781591  0.27599165  0.01806006     0.07600
H801        H  0.95777193  0.25659774  0.04675152     0.11100
H802        H  0.93950731  0.13977447  0.04154425     0.11300
H803        H  0.97815932  0.15864034  0.01245404     0.07600
C804        C  0.03853953  0.21431650  0.98997433    -0.11500
C805        C  0.06071750  0.22515841  0.97316897    -0.10800
C806        C  0.06061037  0.25305453  0.96072973    -0.01700
C807        C  0.03740905  0.26954875  0.96547629    -0.11900
C808        C  0.01474545  0.25826674  0.98213759    -0.10300
H809        H  0.04030945  0.19352778  0.99937659     0.07600
H810        H  0.07849485  0.21208947  0.97006281     0.11300
H811        H  0.03629859  0.29081895  0.95614211     0.11100
H812        H  0.99653480  0.27093448  0.98498987     0.07600
C813        C  0.13973520  0.57660421  0.88999880    -0.11500
C814        C  0.16859973  0.57253450  0.88033363     0.05700
C815        C  0.19759602  0.60484961  0.87021371    -0.10300
C816        C  0.19803871  0.64053267  0.87006496    -0.11900
C817        C  0.16964650  0.64474826  0.88013556    -0.01700
C818        C  0.14041572  0.61225860  0.89002253    -0.10800
C819        C  0.16879893  0.53498299  0.88127382     0.05700
H820        H  0.22054808  0.60288736  0.86280095     0.07600
H821        H  0.22114554  0.66506484  0.86244844     0.11100
H822        H  0.11788538  0.61432260  0.89780935     0.11300
H823        H  0.11647527  0.55214562  0.89757930     0.07600
C824        C  0.15852460  0.51308126  0.89826132    -0.11500
C825        C  0.15822762  0.47762664  0.89923563    -0.10800
C826        C  0.16859453  0.46332490  0.88330303    -0.01700
C827        C  0.17931441  0.48538286  0.86635668    -0.11900
C828        C  0.17923368  0.52069703  0.86532796    -0.10300
H829        H  0.15111176  0.52356624  0.91093872     0.07600
H830        H  0.15018589  0.46157951  0.91255015     0.11300
H831        H  0.18720579  0.47506944  0.85376379     0.11100
H832        H  0.18678810  0.53651322  0.85195503     0.07600
C833        C  0.18716302  0.03058988  0.87326888    -0.11500
C834        C  0.17293597  0.04002911  0.88957790     0.05700
C835        C  0.16025518  0.01416300  0.90514046    -0.10300
C836        C  0.16172193  0.97963329  0.90440105    -0.11900
C837        C  0.17621488  0.97037963  0.88814429    -0.01700
C838        C  0.18900609  0.99629337  0.87260245    -0.10800
C839        C  0.17131155  0.07668904  0.89024262     0.05700
H840        H  0.14966277  0.02081980  0.91801061     0.07600
H841        H  0.15180480  0.96035256  0.91665070     0.11100
H842        H  0.19993592  0.98983062  0.85978275     0.11300
H843        H  0.19637573  0.04943375  0.86086329     0.07600
C844        C  0.20091506  0.11084112  0.88164617    -0.11500
C845        C  0.19857921  0.14482968  0.88131639    -0.10800
C846        C  0.16682134  0.14565303  0.88977066    -0.01700
C847        C  0.13782709  0.11200188  0.89895947    -0.11900
C848        C  0.13993650  0.07774477  0.89909981    -0.10300
H849        H  0.22600084  0.11136527  0.87515514     0.07600
H850        H  0.22175275  0.17055354  0.87442406     0.11300
H851        H  0.11299777  0.11183376  0.90556415     0.11100
H852        H  0.11645264  0.05183281  0.90568969     0.07600
C853        C  0.29697555  0.98747325  0.02175160    -0.11500
C854        C  0.26379276  0.98154370  0.01145540     0.05700
C855        C  0.24201960  0.99799640  0.01864821    -0.10300
C856        C  0.25303226  0.01961344  0.03560745    -0.11900
C857        C  0.28635170  0.02574496  0.04580810    -0.01700
C858        C  0.30820388  0.00940695  0.03863147    -0.10800
C859        C  0.25192698  0.95822654  0.99337903     0.05700
H860        H  0.21670441  0.99471632  0.01102501     0.07600
H861        H  0.23561488  0.03196266  0.04058926     0.11100
H862        H  0.33389261  0.01329713  0.04613459     0.11300
H863        H  0.31409822  0.97470970  0.01691784     0.07600
C864        C  0.28022447  0.95951213  0.98075350    -0.11500
C865        C  0.26914307  0.93695555  0.96406464    -0.10800
C866        C  0.22946396  0.91294244  0.95936793    -0.01700
C867        C  0.20113256  0.91207737  0.97179692    -0.11900
C868        C  0.21218842  0.93418184  0.98862130    -0.10300
H869        H  0.31108311  0.97826302  0.98365787     0.07600
H870        H  0.29170992  0.93867317  0.95470616     0.11300
H871        H  0.17027951  0.89369770  0.96869533     0.11100
H872        H  0.18947975  0.93182362  0.99806566     0.07600
C873        C  0.14712162  0.17085124  0.12302580    -0.11500
C874        C  0.11289273  0.14174161  0.11420956     0.05700
C875        C  0.11337453  0.10985986  0.10558924    -0.10300
C876        C  0.14705396  0.10666700  0.10626804    -0.11900
C877        C  0.18072218  0.13510414  0.11573298    -0.01700
C878        C  0.18054132  0.16744848  0.12388910    -0.10800
C879        C  0.07644379  0.14387653  0.11484499     0.05700
H880        H  0.08736408  0.08676825  0.09883939     0.07600
H881        H  0.14638603  0.08140565  0.09987867     0.11100
H882        H  0.20629933  0.19019646  0.13098286     0.11300
H883        H  0.14799503  0.19621273  0.12940066     0.07600
C884        C  0.06646368  0.15660350  0.13150803    -0.11500
C885        C  0.03180499  0.15778331  0.13248190    -0.10800
C886        C  0.00603470  0.14591677  0.11687310    -0.01700
C887        C  0.01609173  0.13343181  0.10012733    -0.11900
C888        C  0.05098780  0.13253386  0.09910786    -0.10300
H889        H  0.08508379  0.16490255  0.14399937     0.07600
H890        H  0.02486700  0.16732580  0.14562626     0.11300
H891        H  0.99705822  0.12447593  0.08777083     0.11100
H892        H  0.05813217  0.12313341  0.08598081     0.07600
C893        C  0.54691745  0.12397469  0.10770778    -0.11500
C894        C  0.56935872  0.13544335  0.12456202     0.05700
C895        C  0.55545219  0.14689590  0.14029477    -0.10300
C896        C  0.52007485  0.14682659  0.13919551    -0.11900
C897        C  0.49747468  0.13488851  0.12240154    -0.01700
C898        C  0.51133373  0.12345422  0.10668643    -0.10800
C899        C  0.60700962  0.13538456  0.12564862     0.05700
H900        H  0.57155313  0.15531779  0.15359754     0.07600
H901        H  0.51012225  0.15553205  0.15164172     0.11100
H902        H  0.49484254  0.11442277  0.09349579     0.11300
H903        H  0.55703516  0.11579353  0.09515514     0.07600
C904        C  0.61142273  0.10667368  0.11601315    -0.11500
C905        C  0.64705066  0.10734285  0.11634323    -0.10800
C906        C  0.67920251  0.13648359  0.12649642    -0.01700
C907        C  0.67464017  0.16461769  0.13657454    -0.11900
C908        C  0.63900544  0.16419964  0.13607103    -0.10300
H909        H  0.58726497  0.08347785  0.10822526     0.07600
H910        H  0.64938210  0.08494431  0.10856333     0.11300
H911        H  0.69890559  0.18759666  0.14441649     0.11100
H912        H  0.63689205  0.18708747  0.14346060     0.07600
C913        C  0.05470454  0.82915972  0.12799716    -0.11500
C914        C  0.05974586  0.86223845  0.11802874     0.05700
C915        C  0.02761921  0.86007641  0.10821811    -0.10300
C916        C  0.99129298  0.82566973  0.10846446    -0.11900
C917        C  0.98624513  0.79300019  0.11878476    -0.01700
C918        C  0.01833895  0.79510731  0.12851637    -0.10800
C919        C  0.09833449  0.89880562  0.11808210     0.05700
H920        H  0.03030516  0.88517140  0.10063399     0.07600
H921        H  0.96698283  0.82492028  0.10092157     0.11100
H922        H  0.01548083  0.77023823  0.13641351     0.11300
H923        H  0.07896573  0.82939153  0.13531226     0.07600
C924        C  0.12215752  0.90978503  0.13443619    -0.11500
C925        C  0.15878750  0.94360255  0.13448312    -0.10800
C926        C  0.17232166  0.96764300  0.11827288    -0.01700
C927        C  0.14836373  0.95706088  0.10197828    -0.11900
C928        C  0.11185586  0.92287528  0.10184557    -0.10300
H929        H  0.11234284  0.89250092  0.14735019     0.07600
H930        H  0.17627661  0.95119297  0.14735850     0.11300
H931        H  0.15800784  0.97494750  0.08923989     0.11100
H932        H  0.09453625  0.91502863  0.08891768     0.07600
C933        C  0.53478328  0.35740768  0.11310346    -0.11500
C934        C  0.56766522  0.36023498  0.12234332     0.05700
C935        C  0.56355147  0.32790328  0.13271336    -0.10300
C936        C  0.52737105  0.29335509  0.13362881    -0.11900
C937        C  0.49473412  0.29036983  0.12402608    -0.01700
C938        C  0.49882540  0.32286147  0.11385562    -0.10800
C939        C  0.60576578  0.39717367  0.12140177     0.05700
H940        H  0.58843600  0.32907118  0.13984948     0.07600
H941        H  0.52519264  0.26869983  0.14145144     0.11100
H942        H  0.47415474  0.32163596  0.10645095     0.11300
H943        H  0.53672144  0.38207611  0.10540168     0.07600
C944        C  0.61751331  0.41938014  0.10452304    -0.11500
C945        C  0.65184189  0.45568489  0.10405025    -0.10800
C946        C  0.67547680  0.47029634  0.12036984    -0.01700
C947        C  0.66443736  0.44746500  0.13705143    -0.11900
C948        C  0.62988506  0.41138023  0.13758326    -0.10300
H949        H  0.60000426  0.40878938  0.09168429     0.07600
H950        H  0.65985919  0.47230035  0.09090302     0.11300
H951        H  0.68200156  0.45790937  0.14988372     0.11100
H952        H  0.62147740  0.39519603  0.15085160     0.07600
C953        C  0.81269211  0.84355787  0.13279561    -0.11500
C954        C  0.82937715  0.86922560  0.11727156     0.05700
C955        C  0.84348021  0.85731012  0.10178080    -0.10300
C956        C  0.84104531  0.82075180  0.10185095    -0.11900
C957        C  0.82425180  0.79512507  0.11737617    -0.01700
C958        C  0.81003713  0.80696844  0.13281674    -0.10800
C959        C  0.83205737  0.90821044  0.11732804     0.05700
H960        H  0.85602021  0.87604560  0.08947075     0.07600
H961        H  0.85225968  0.81255604  0.08970766     0.11100
H962        H  0.79741608  0.78823062  0.14512973     0.11300
H963        H  0.80226655  0.85199027  0.14515056     0.07600
C964        C  0.80213475  0.91282479  0.12548286    -0.11500
C965        C  0.80498284  0.94948518  0.12602009    -0.10800
C966        C  0.83756725  0.98240890  0.11818942    -0.01700
C967        C  0.86724549  0.97787295  0.10977201    -0.11900
C968        C  0.86463686  0.94122150  0.10944345    -0.10300
H969        H  0.77625664  0.88801307  0.13133930     0.07600
H970        H  0.78144891  0.95200677  0.13245168     0.11300
H971        H  0.89289592  0.00283325  0.10382647     0.11100
H972        H  0.88854154  0.93893775  0.10333999     0.07600
C973        C  0.86470368  0.44082513  0.11481496    -0.11500
C974        C  0.83624455  0.40789465  0.12468845     0.05700
C975        C  0.80765500  0.41109039  0.13519337    -0.10300
C976        C  0.80745719  0.44637116  0.13568709    -0.11900
C977        C  0.83558689  0.47900263  0.12550917    -0.01700
C978        C  0.86428303  0.47584620  0.11515585    -0.10800
C979        C  0.83655913  0.37048499  0.12396364     0.05700
H980        H  0.78496043  0.38612542  0.14273966     0.07600
H981        H  0.78477123  0.44781677  0.14365333     0.11100
H982        H  0.88660774  0.50055379  0.10729380     0.11300
H983        H  0.88764040  0.43971445  0.10692924     0.07600
C984        C  0.84716810  0.35882834  0.10712421    -0.11500
C985        C  0.84806769  0.32398260  0.10648904    -0.10800
C986        C  0.83788623  0.29969030  0.12260131    -0.01700
C987        C  0.82706132  0.31119181  0.13940959    -0.11900
C988        C  0.82663541  0.34629000  0.14011434    -0.10300
H989        H  0.85434870  0.37640125  0.09431508     0.07600
H990        H  0.85632023  0.31586471  0.09329168     0.11300
H991        H  0.81944526  0.29333545  0.15214351     0.11100
H992        H  0.81908536  0.35472763  0.15341381     0.07600
C993        C  0.45285145  0.58651814  0.90177422    -0.11500
C994        C  0.43293652  0.57215144  0.88439006     0.05700
C995        C  0.44906372  0.59398180  0.86768123    -0.10300
C996        C  0.48463879  0.62909004  0.86830355    -0.11900
C997        C  0.50499255  0.64286060  0.88562053    -0.01700
C998        C  0.48861131  0.62138640  0.90236465    -0.10800
C999        C  0.39592020  0.53411822  0.88368461     0.05700
H1000       H  0.43467162  0.58347163  0.85404445     0.07600
H1001       H  0.49666760  0.64495663  0.85513868     0.11100
H1002       H  0.50339058  0.63158919  0.91594574     0.11300
H1003       H  0.44075095  0.57080431  0.91495973     0.07600
C1004       C  0.39143872  0.50270524  0.89491269    -0.11500
C1005       C  0.35651563  0.46704703  0.89459104    -0.10800
C1006       C  0.32526496  0.46175797  0.88289706    -0.01700
C1007       C  0.32993127  0.49295127  0.87140016    -0.11900
C1008       C  0.36488486  0.52881602  0.87183217    -0.10300
H1009       H  0.41508286  0.50556228  0.90387328     0.07600
H1010       H  0.35408973  0.44355453  0.90351811     0.11300
H1011       H  0.30635247  0.48989888  0.86232815     0.11100
H1012       H  0.36733122  0.55261677  0.86315775     0.07600
C1013       C  0.95951706  0.07825581  0.90496582    -0.11500
C1014       C  0.93488899  0.06489452  0.88889418     0.05700
C1015       C  0.94542519  0.08883170  0.87260586    -0.10300
C1016       C  0.97912546  0.12552930  0.87252363    -0.11900
C1017       C  0.00354363  0.13903107  0.88862251    -0.01700
C1018       C  0.99360507  0.11484464  0.90479227    -0.10800
C1019       C  0.89802149  0.02651493  0.88908131     0.05700
H1020       H  0.92779041  0.07911786  0.85978288     0.07600
H1021       H  0.98625122  0.14313018  0.85971699     0.11100
H1022       H  0.01188476  0.12437294  0.91741814     0.11300
H1023       H  0.95211726  0.06082108  0.91782703     0.07600
C1024       C  0.89556968  0.99416663  0.89878494    -0.11500
C1025       C  0.86086388  0.95803945  0.89856047    -0.10800
C1026       C  0.82813704  0.95342502  0.88840893    -0.01700
C1027       C  0.83050414  0.98580138  0.87886736    -0.11900
C1028       C  0.86485209  0.02193502  0.87934885    -0.10300
H1029       H  0.92066041  0.99649356  0.90623852     0.07600
H1030       H  0.85991838  0.93353228  0.90597953     0.11300
H1031       H  0.80561175  0.98334042  0.87113334     0.11100
H1032       H  0.86523482  0.04638660  0.87217500     0.07600
C1033       C  0.38664664  0.80408942  0.90004736    -0.11500
C1034       C  0.40183782  0.80018232  0.88256941     0.05700
C1035       C  0.38116836  0.79716313  0.86571576    -0.10300
C1036       C  0.34632413  0.79818735  0.86633904    -0.11900
C1037       C  0.33165754  0.80283547  0.88378757    -0.01700
C1038       C  0.35223890  0.80586128  0.90062296    -0.10800
C1039       C  0.43958284  0.80035668  0.88198831     0.05700
H1040       H  0.39227272  0.79478703  0.85198715     0.07600
H1041       H  0.33122683  0.79609585  0.85310079     0.11100
H1042       H  0.34141333  0.80901710  0.91429197     0.11300
H1043       H  0.40123376  0.80558228  0.91336465     0.07600
C1044       C  0.46981989  0.82410938  0.89466569    -0.11500
C1045       C  0.50512533  0.82423734  0.89451910    -0.10800
C1046       C  0.51150334  0.80093146  0.88153634    -0.01700
C1047       C  0.48152885  0.77746936  0.86863023    -0.11900
C1048       C  0.44591206  0.77713579  0.86887649    -0.10300
H1049       H  0.46645427  0.84308532  0.90464220     0.07600
H1050       H  0.52750646  0.84281838  0.90463896     0.11300
H1051       H  0.48537244  0.75901470  0.85850129     0.11100
H1052       H  0.42312333  0.75816752  0.85902895     0.07600
C1053       C  0.89580841  0.82163201  0.90184451    -0.11500
C1054       C  0.90152657  0.79441784  0.89157279     0.05700
C1055       C  0.86966431  0.76424142  0.88171379    -0.10300
C1056       C  0.83331399  0.76215524  0.88158172    -0.11900
C1057       C  0.82793675  0.79006510  0.89140798    -0.01700
C1058       C  0.85942276  0.81942434  0.90180967    -0.10800
C1059       C  0.94085767  0.79826789  0.89062000     0.05700
H1060       H  0.87287704  0.74230096  0.87400623     0.07600
H1061       H  0.80952532  0.73886593  0.87363673     0.11100
H1062       H  0.85632505  0.84145404  0.90950493     0.11300
H1063       H  0.91979950  0.84544664  0.90942649     0.07600
C1064       C  0.95423439  0.79079174  0.87346855    -0.11500
C1065       C  0.99111903  0.79431325  0.87245630    -0.10800
C1066       C  0.01569003  0.80563320  0.88854091    -0.01700
C1067       C  0.00268259  0.81384301  0.90562305    -0.11900
C1068       C  0.96559035  0.81004561  0.90666860    -0.10300
H1069       H  0.93633840  0.78260690  0.86072246     0.07600
H1070       H  0.00044693  0.78829514  0.85899943     0.11300
H1071       H  0.02085876  0.82250084  0.91828363     0.11100
H1072       H  0.95603286  0.81571525  0.92013745     0.07600
C1073       C  0.76881542  0.74920411  0.98291244    -0.11500
C1074       C  0.74170951  0.71699623  0.99371010     0.05700
C1075       C  0.70239015  0.69680600  0.98780668    -0.10300
C1076       C  0.69044753  0.70860932  0.97153202    -0.11900
C1077       C  0.71755499  0.74094421  0.96076653    -0.01700
C1078       C  0.75689701  0.76106248  0.96667948    -0.10800
C1079       C  0.75426270  0.70498523  0.01125152     0.05700
H1080       H  0.68067289  0.67223905  0.99596696     0.07600
H1081       H  0.65989145  0.69254453  0.96747703     0.11100
H1082       H  0.77866969  0.78590362  0.95868299     0.11300
H1083       H  0.79940552  0.76506847  0.98691220     0.07600
C1084       C  0.73902306  0.66522157  0.01565316    -0.11500
C1085       C  0.75004173  0.65404758  0.03243730    -0.10800
C1086       C  0.77676556  0.68239138  0.04513154    -0.01700
C1087       C  0.79239599  0.72213827  0.04061223    -0.11900
C1088       C  0.78118658  0.73328901  0.02391218    -0.10300
H1089       H  0.71872560  0.64271279  0.00604864     0.07600
H1090       H  0.73784659  0.62320213  0.03541144     0.11300
H1091       H  0.81282921  0.74470463  0.05016418     0.11100
H1092       H  0.79304112  0.76413818  0.02110115     0.07600
C1093       C  0.75020344  0.06927809  0.27588131    -0.11500
C1094       C  0.75763533  0.10194577  0.26472501     0.05700
C1095       C  0.76849004  0.13744757  0.27409721    -0.10300
C1096       C  0.77407902  0.14078631  0.29386964    -0.11900
C1097       C  0.76936770  0.10883120  0.30477670    -0.01700
C1098       C  0.75624897  0.07274689  0.29561920    -0.10800
C1099       C  0.75788991  0.10013998  0.24342661     0.05700
H1100       H  0.77493194  0.16341245  0.26608910     0.07600
H1101       H  0.78429113  0.16907391  0.30042989     0.11100
H1102       H  0.75184007  0.04740485  0.30362394     0.11300
H1103       H  0.74075402  0.04116204  0.26931170     0.07600
C1104       C  0.77095260  0.07714233  0.23425883    -0.11500
C1105       C  0.77609327  0.07895270  0.21451302    -0.10800
C1106       C  0.76889746  0.10424523  0.20331696    -0.01700
C1107       C  0.75406038  0.12588839  0.21228243    -0.11900
C1108       C  0.74841193  0.12368706  0.23208125    -0.10300
H1109       H  0.77925363  0.05914754  0.24239029     0.07600
H1110       H  0.78773094  0.06194459  0.20817406     0.11300
H1111       H  0.74786705  0.14539502  0.20408319     0.11100
H1112       H  0.73746267  0.14117200  0.23853132     0.07600
C1113       C  0.23759022  0.37082703  0.73387060    -0.11500
C1114       C  0.25149755  0.34858159  0.74317890     0.05700
C1115       C  0.26131104  0.32522779  0.73192592    -0.10300
C1116       C  0.25447211  0.32182280  0.71220852    -0.11900
C1117       C  0.23840644  0.34231288  0.70315869    -0.01700
C1118       C  0.23147328  0.36798985  0.71412705    -0.10800
C1119       C  0.25183129  0.34671603  0.76452068     0.05700
H1120       H  0.27316959  0.30853322  0.73842215     0.07600
H1121       H  0.26069155  0.30223987  0.70413293     0.11100
H1122       H  0.21900270  0.38417303  0.70764990     0.11300
H1123       H  0.22921768  0.38880887  0.74191658     0.07600
C1124       C  0.25851967  0.37893667  0.77584526    -0.11500
C1125       C  0.25289430  0.37506885  0.79564805    -0.10800
C1126       C  0.24078154  0.33897364  0.80468453    -0.01700
C1127       C  0.23660449  0.30754191  0.79353128    -0.11900
C1128       C  0.24182785  0.31128692  0.77376776    -0.10300
H1129       H  0.26712808  0.40696977  0.76937065     0.07600
H1130       H  0.25672964  0.40003788  0.80377100     0.11300
H1131       H  0.22725958  0.27924829  0.79991021     0.11100
H1132       H  0.23582733  0.28557588  0.76567273     0.07600
C1133       C  0.01740277  0.19837530  0.52459676    -0.11500
C1134       C  0.01270333  0.22542151  0.51354366     0.05700
C1135       C  0.03195327  0.26483728  0.51924782    -0.10300
C1136       C  0.05500193  0.27684858  0.53570476    -0.11900
C1137       C  0.05964960  0.24977081  0.54677262    -0.01700
C1138       C  0.04061375  0.21040722  0.54100007    -0.10800
C1139       C  0.98770128  0.21266665  0.49619155     0.05700
H1140       H  0.02956896  0.28657875  0.51087339     0.07600
H1141       H  0.06934307  0.30742371  0.53967815     0.11100
H1142       H  0.04329598  0.18869918  0.54925825     0.11300
H1143       H  0.00256952  0.16771721  0.52077620     0.07600
C1144       C  0.98690913  0.18400906  0.48403874    -0.11500
C1145       C  0.96416239  0.17292014  0.46747005    -0.10800
C1146       C  0.94198177  0.19049794  0.46258156    -0.01700
C1147       C  0.94226293  0.21865107  0.47488303    -0.11900
C1148       C  0.96468085  0.22943536  0.49153700    -0.10300
H1149       H  0.00457550  0.17077388  0.48707846     0.07600
H1150       H  0.96467230  0.15119241  0.45827091     0.11300
H1151       H  0.92510037  0.23236768  0.47166352     0.11100
H1152       H  0.96384385  0.25086433  0.50081908     0.07600
C1153       C  0.17015510  0.73307528  0.73291582    -0.11500
C1154       C  0.13416702  0.72118145  0.74196725     0.05700
C1155       C  0.10145595  0.71258339  0.73057241    -0.10300
C1156       C  0.10525091  0.71841029  0.71082717    -0.11900
C1157       C  0.14177144  0.73264238  0.70196183    -0.01700
C1158       C  0.17387566  0.73856824  0.71315111    -0.10800
C1159       C  0.13188341  0.72176629  0.76319874     0.05700
H1160       H  0.07310338  0.70252705  0.73699725     0.07600
H1161       H  0.07982448  0.71306555  0.70259154     0.11100
H1162       H  0.20248136  0.74964838  0.70681396     0.11300
H1163       H  0.19608022  0.74037632  0.74119696     0.07600
C1164       C  0.15439372  0.71142732  0.77481058    -0.11500
C1165       C  0.15636690  0.71742714  0.79458333    -0.10800
C1166       C  0.13561113  0.73360911  0.80323535    -0.01700
C1167       C  0.11141577  0.74185541  0.79173150    -0.11900
C1168       C  0.10973384  0.73620776  0.77200318    -0.10300
H1169       H  0.17130645  0.69961631  0.76855509     0.07600
H1170       H  0.17504909  0.71045358  0.80301482     0.11300
H1171       H  0.09521549  0.75462048  0.79782323     0.11100
H1172       H  0.09258215  0.74513171  0.76356075     0.07600
C1173       C  0.15399221  0.58323640  0.60743550    -0.11500
C1174       C  0.16176728  0.56889271  0.62421860     0.05700
C1175       C  0.17120138  0.59162065  0.64092948    -0.10300
C1176       C  0.17330680  0.62804978  0.64076242    -0.11900
C1177       C  0.16559471  0.64227511  0.62393022    -0.01700
C1178       C  0.15563802  0.61929137  0.60732500    -0.10800
C1179       C  0.16072773  0.53075083  0.62409345     0.05700
H1180       H  0.17669620  0.58115033  0.65419120     0.07600
H1181       H  0.18066594  0.64491523  0.65381487     0.11100
H1182       H  0.14983148  0.62951297  0.59405270     0.11300
H1183       H  0.14740604  0.56699099  0.59421898     0.07600
C1184       C  0.13321245  0.49948269  0.61286644    -0.11500
C1185       C  0.13328799  0.46419412  0.61214247    -0.10800
C1186       C  0.16064153  0.45919514  0.62277692    -0.01700
C1187       C  0.18763145  0.49014595  0.63429125    -0.11900
C1188       C  0.18783604  0.52556024  0.63484591    -0.10300
H1189       H  0.11139715  0.50215490  0.60469600     0.07600
H1190       H  0.11178964  0.44077306  0.60331071     0.11300
H1191       H  0.20919112  0.48732154  0.64262207     0.11100
H1192       H  0.20983785  0.54916057  0.64339663     0.07600
C1193       C  0.15129755  0.08434750  0.60503176    -0.11500
C1194       C  0.16099938  0.07078120  0.62154643     0.05700
C1195       C  0.16662114  0.09125649  0.63873210    -0.10300
C1196       C  0.16354090  0.12495534  0.63929348    -0.11900
C1197       C  0.15443713  0.13882955  0.62272163    -0.01700
C1198       C  0.14783245  0.11783859  0.60563281    -0.10800
C1199       C  0.16564536  0.03569708  0.62080280     0.05700
H1200       H  0.17333090  0.08118737  0.65179766     0.07600
H1201       H  0.16842907  0.14023896  0.65272401     0.11100
H1202       H  0.14107934  0.12791249  0.59257399     0.11300
H1203       H  0.14730633  0.06963389  0.59150267     0.07600
C1204       C  0.14082945  0.00344641  0.60936083    -0.11500
C1205       C  0.14521421  0.97050905  0.60865820    -0.10800
C1206       C  0.17436288  0.96886575  0.61949457    -0.01700
C1207       C  0.19926529  0.00115898  0.63088530    -0.11900
C1208       C  0.19505677  0.03421798  0.63147407    -0.10300
H1209       H  0.11751744  0.00334258  0.60117765     0.07600
H1210       H  0.12526804  0.94603520  0.59985800     0.11300
H1211       H  0.22215623  0.00098009  0.63932218     0.11100
H1212       H  0.21515020  0.05881400  0.64015879     0.07600
C1213       C  0.35607440  0.21976783  0.27505835    -0.11500
C1214       C  0.38014609  0.21031400  0.26418392     0.05700
C1215       C  0.40392127  0.19877191  0.27386551    -0.10300
C1216       C  0.40188222  0.19445480  0.29368113    -0.11900
C1217       C  0.37569645  0.20112037  0.30436511    -0.01700
C1218       C  0.35358873  0.21485996  0.29488324    -0.10800
C1219       C  0.37771701  0.20876550  0.24290341     0.05700
H1220       H  0.42252552  0.19080397  0.26610184     0.07600
H1221       H  0.41927359  0.18367905  0.30047745     0.11100
H1222       H  0.33345739  0.22068159  0.30270544     0.11300
H1223       H  0.33817109  0.22984900  0.26820388     0.07600
C1224       C  0.34170560  0.19651326  0.23374253    -0.11500
C1225       C  0.33807079  0.19128880  0.21400904    -0.10800
C1226       C  0.37023952  0.19778260  0.20280150    -0.01700
C1227       C  0.40650437  0.21074517  0.21183171    -0.11900
C1228       C  0.41025400  0.21641560  0.23161619    -0.10300
H1229       H  0.31570634  0.18931534  0.24187011     0.07600
H1230       H  0.30953375  0.18080491  0.20764275     0.11300
H1231       H  0.43187846  0.21586059  0.20367643     0.11100
H1232       H  0.43859662  0.22634737  0.23807055     0.07600
C1233       C  0.23404650  0.97597391  0.48030832    -0.11500
C1234       C  0.26168667  0.97466680  0.49248251     0.05700
C1235       C  0.30163174  0.99794189  0.48813860    -0.10300
C1236       C  0.31367183  0.02198188  0.47203907    -0.11900
C1237       C  0.28604605  0.02349244  0.45997285    -0.01700
C1238       C  0.24609067  0.00023179  0.46427920    -0.10800
C1239       C  0.24905140  0.94996817  0.50992949     0.05700
H1240       H  0.32369440  0.99815735  0.49739606     0.07600
H1241       H  0.34467685  0.03973690  0.46917314     0.11100
H1242       H  0.22404811  0.00041017  0.45514143     0.11300
H1243       H  0.20304422  0.95799584  0.48309127     0.07600
C1244       C  0.21816392  0.94695050  0.52109221    -0.11500
C1245       C  0.20714859  0.92494761  0.53788996    -0.10800
C1246       C  0.22682401  0.90548730  0.54399458    -0.01700
C1247       C  0.25756256  0.90827057  0.53274139    -0.11900
C1248       C  0.26842925  0.93011574  0.51587804    -0.10300
H1249       H  0.20304118  0.96237743  0.51709041     0.07600
H1250       H  0.18356720  0.92372502  0.54625602     0.11300
H1251       H  0.27323516  0.89349513  0.53693281     0.11100
H1252       H  0.29195504  0.93135395  0.50745696     0.07600
C1253       C  0.12356438  0.12238743  0.40457206    -0.11500
C1254       C  0.11054978  0.13331620  0.38826503     0.05700
C1255       C  0.13184502  0.14076790  0.37124587    -0.10300
C1256       C  0.16561948  0.13790130  0.37058828    -0.11900
C1257       C  0.17878461  0.12718132  0.38689643    -0.01700
C1258       C  0.15727306  0.11925877  0.40388692    -0.10800
C1259       C  0.07483520  0.13680952  0.38888041     0.05700
H1260       H  0.12217387  0.14847372  0.35834049     0.07600
H1261       H  0.18130523  0.14386991  0.35722970     0.11100
H1262       H  0.16682869  0.11125736  0.41674258     0.11300
H1263       H  0.10803586  0.11686589  0.41795069     0.07600
C1264       C  0.04150062  0.10938376  0.39890237    -0.11500
C1265       C  0.00748272  0.11197392  0.39890107    -0.10800
C1266       C  0.00597620  0.14197629  0.38880646    -0.01700
C1267       C  0.03949233  0.16966646  0.37898636    -0.11900
C1268       C  0.07354581  0.16720488  0.37909050    -0.10300
H1269       H  0.04140265  0.08536843  0.40639558     0.07600
H1270       H  0.98212506  0.09002362  0.40652899     0.11300
H1271       H  0.03948020  0.19337198  0.37123401     0.11100
H1272       H  0.09896798  0.18922075  0.37153112     0.07600
C1273       C  0.56336801  0.15763035  0.37193105    -0.11500
C1274       C  0.56920304  0.13068425  0.38241457     0.05700
C1275       C  0.53818042  0.10233878  0.39344259    -0.10300
C1276       C  0.50246141  0.10148043  0.39427147    -0.11900
C1277       C  0.49678843  0.12864551  0.38390446    -0.01700
C1278       C  0.52753347  0.15651764  0.37259762    -0.10800
C1279       C  0.60785706  0.13293276  0.38239334     0.05700
H1280       H  0.54144024  0.08067340  0.40141838     0.07600
H1281       H  0.47924845  0.07942757  0.40296977     0.11100
H1282       H  0.52420890  0.17804858  0.36452133     0.11300
H1283       H  0.58679622  0.18022801  0.36355781     0.07600
C1284       C  0.63084720  0.14294853  0.36577139    -0.11500
C1285       C  0.66743496  0.14538741  0.36603605    -0.10800
C1286       C  0.68148808  0.13745401  0.38287518    -0.01700
C1287       C  0.65857515  0.12772248  0.39946779    -0.11900
C1288       C  0.62236016  0.12565589  0.39924861    -0.10300
H1289       H  0.62034336  0.14836161  0.35249414     0.07600
H1290       H  0.68437720  0.15279465  0.35301960     0.11300
H1291       H  0.66878843  0.12199314  0.41276479     0.11100
H1292       H  0.60596453  0.11887638  0.41241409     0.07600
C1293       C  0.83432828  0.56581519  0.27417954    -0.11500
C1294       C  0.86969573  0.58981749  0.26457336     0.05700
C1295       C  0.90303320  0.61449223  0.27554249    -0.10300
C1296       C  0.90020532  0.61766707  0.29529560    -0.11900
C1297       C  0.86418047  0.59555030  0.30461949    -0.01700
C1298       C  0.83171609  0.56840602  0.29393614    -0.10800
C1299       C  0.87054657  0.59215588  0.24326968     0.05700
H1300       H  0.93111573  0.63248582  0.26880541     0.07600
H1301       H  0.92592983  0.63838923  0.30316672     0.11100
H1302       H  0.80348155  0.55087741  0.30063918     0.11300
H1303       H  0.80785326  0.54669806  0.26638717     0.07600
C1304       C  0.84503128  0.55975252  0.23198976    -0.11500
C1305       C  0.84190010  0.56378720  0.21230845    -0.10800
C1306       C  0.86461087  0.60020125  0.20335382    -0.01700
C1307       C  0.89164115  0.63200480  0.21444146    -0.11900
C1308       C  0.89439555  0.62811398  0.23409002    -0.10300
H1309       H  0.82679018  0.53134872  0.23839597     0.07600
H1310       H  0.82099837  0.53857229  0.20420450     0.11300
H1311       H  0.90964328  0.66055654  0.20809981     0.11100
H1312       H  0.91391575  0.65400281  0.24215769     0.07600
C1313       C  0.80840672  0.84218171  0.37363574    -0.11500
C1314       C  0.83432556  0.87167200  0.38616448     0.05700
C1315       C  0.85653470  0.86316221  0.39890848    -0.10300
C1316       C  0.85300649  0.82623565  0.39914759    -0.11900
C1317       C  0.82734032  0.79682197  0.38655851    -0.01700
C1318       C  0.80505321  0.80523113  0.37378216    -0.10800
C1319       C  0.83857668  0.91126707  0.38588451     0.05700
H1320       H  0.87730955  0.88529587  0.40850748     0.07600
H1321       H  0.87083838  0.82095266  0.40910075     0.11100
H1322       H  0.78493620  0.78326506  0.36390377     0.11300
H1323       H  0.79038335  0.84748694  0.36382607     0.07600
C1324       C  0.83659929  0.92827874  0.36860637    -0.11500
C1325       C  0.84042888  0.96537059  0.36836219    -0.10800
C1326       C  0.84677749  0.98654543  0.38535626    -0.01700
C1327       C  0.84945400  0.96993779  0.40260189    -0.11900
C1328       C  0.84507891  0.93259861  0.40288256    -0.10300
H1329       H  0.83244892  0.91310398  0.35520756     0.07600
H1330       H  0.83849820  0.97752806  0.35482554     0.11300
H1331       H  0.85386526  0.98535243  0.41595880     0.11100
H1332       H  0.84609298  0.92018340  0.41649181     0.07600
C1333       C  0.85121100  0.43380436  0.39935435    -0.11500
C1334       C  0.84177830  0.41061450  0.38286367     0.05700
C1335       C  0.82990705  0.42250001  0.36643493    -0.10300
C1336       C  0.82746299  0.45663294  0.36653669    -0.11900
C1337       C  0.83732517  0.47990461  0.38298755    -0.01700
C1338       C  0.84932131  0.46810468  0.39936905    -0.10800
C1339       C  0.84379424  0.37396870  0.38299085     0.05700
H1340       H  0.82296883  0.40572404  0.35338057     0.07600
H1341       H  0.81837850  0.46507096  0.35366618     0.11100
H1342       H  0.85677173  0.48512392  0.41237796     0.11300
H1343       H  0.85952845  0.42520628  0.41241034     0.07600
C1344       C  0.87251013  0.37132916  0.39376691    -0.11500
C1345       C  0.87306372  0.33626600  0.39471799    -0.10800
C1346       C  0.84523357  0.30315237  0.38471792    -0.01700
C1347       C  0.81729104  0.30609449  0.37347616    -0.11900
C1348       C  0.81642544  0.34095342  0.37271914    -0.10300
H1349       H  0.89471490  0.39641946  0.40146003     0.07600
H1350       H  0.89539342  0.33514614  0.40321795     0.11300
H1351       H  0.79541200  0.28112649  0.36556469     0.11100
H1352       H  0.79360028  0.34162358  0.36446245     0.07600
C1353       C  0.12791627  0.90178009  0.37562756    -0.11500
C1354       C  0.09908072  0.89793331  0.38861541     0.05700
C1355       C  0.10871914  0.92817016  0.40184158    -0.10300
C1356       C  0.14587498  0.96163069  0.40179603    -0.11900
C1357       C  0.17433270  0.96582576  0.38847475    -0.01700
C1358       C  0.16495031  0.93530232  0.37550056    -0.10800
C1359       C  0.05906778  0.86281608  0.38804717     0.05700
H1360       H  0.08726493  0.92650195  0.41194118     0.07600
H1361       H  0.15201811  0.98452250  0.41202344     0.11100
H1362       H  0.18616848  0.93731255  0.36514656     0.11300
H1363       H  0.12197914  0.87874308  0.36554029     0.07600
C1364       C  0.04218223  0.84493301  0.37052612    -0.11500
C1365       C  0.00533075  0.81128871  0.36985038    -0.10800
C1366       C  0.98397197  0.79499905  0.38663618    -0.01700
C1367       C  0.00024803  0.81322148  0.40415399    -0.11900
C1368       C  0.03748395  0.84663049  0.40486959    -0.10300
H1369       H  0.05735312  0.85703865  0.35723217     0.07600
H1370       H  0.99341537  0.79811856  0.35612016     0.11300
H1371       H  0.98462522  0.80105722  0.41735475     0.11100
H1372       H  0.04966584  0.85922562  0.41864392     0.07600
C1373       C  0.62975018  0.40980852  0.37145968    -0.11500
C1374       C  0.59643203  0.40556550  0.38080313     0.05700
C1375       C  0.59920812  0.43761095  0.39089841    -0.10300
C1376       C  0.63472339  0.47269157  0.39204148    -0.11900
C1377       C  0.66804271  0.47670024  0.38284203    -0.01700
C1378       C  0.66507676  0.44506761  0.37234439    -0.10800
C1379       C  0.55951577  0.36732672  0.38074463     0.05700
H1380       H  0.57393311  0.43560100  0.39795720     0.07600
H1381       H  0.63603928  0.49673208  0.40005466     0.11100
H1382       H  0.69033500  0.44720663  0.36518702     0.11300
H1383       H  0.62888622  0.38555204  0.36387689     0.07600
C1384       C  0.53625520  0.35433400  0.39719601    -0.11500
C1385       C  0.50245249  0.31779572  0.39756689    -0.10800
C1386       C  0.49109793  0.29307856  0.38154771    -0.01700
C1387       C  0.51430078  0.30589423  0.36506925    -0.11900
C1388       C  0.54801685  0.34281212  0.36462228    -0.10300
H1389       H  0.54462484  0.37197085  0.41001048     0.07600
H1390       H  0.48551799  0.30869528  0.41059908     0.11300
H1391       H  0.50623816  0.28758786  0.35248850     0.11100
H1392       H  0.56500147  0.35218598  0.35162166     0.07600
C1393       C  0.64706522  0.86868800  0.73178345    -0.11500
C1394       C  0.62275040  0.83578991  0.74299734     0.05700
C1395       C  0.59903822  0.79984182  0.73380211    -0.10300
C1396       C  0.60158580  0.79632547  0.71408542    -0.11900
C1397       C  0.62812126  0.82858992  0.70310005    -0.01700
C1398       C  0.64997456  0.86507058  0.71209638    -0.10800
C1399       C  0.62565332  0.83777355  0.76420205     0.05700
H1400       H  0.58026457  0.77379033  0.74195158     0.07600
H1401       H  0.58442239  0.76773016  0.70764838     0.11100
H1402       H  0.67034677  0.89059053  0.70402237     0.11300
H1403       H  0.66502804  0.89702112  0.73833615     0.07600
C1404       C  0.66238652  0.85996552  0.77296992    -0.11500
C1405       C  0.66666412  0.85789611  0.79261212    -0.10800
C1406       C  0.63438920  0.83325503  0.80406482    -0.01700
C1407       C  0.59725313  0.81250888  0.79549847    -0.11900
C1408       C  0.59291836  0.81483415  0.77578001    -0.10300
H1409       H  0.68838237  0.87743804  0.76454726     0.07600
H1410       H  0.69575636  0.87427180  0.79865455     0.11300
H1411       H  0.57171605  0.79356202  0.80392608     0.11100
H1412       H  0.56409789  0.79786264  0.76953084     0.07600
C1413       C  0.38796526  0.50027712  0.60910609    -0.11500
C1414       C  0.40080132  0.52405371  0.62541712     0.05700
C1415       C  0.37627044  0.51279268  0.64150900    -0.10300
C1416       C  0.33951234  0.47882386  0.64116053    -0.11900
C1417       C  0.32675644  0.45518148  0.62479442    -0.01700
C1418       C  0.35153183  0.46623222  0.60882489    -0.10800
C1419       C  0.43899952  0.56110649  0.62527752     0.05700
H1420       H  0.38553582  0.53015123  0.65441294     0.07600
H1421       H  0.32125736  0.47091927  0.65374158     0.11100
H1422       H  0.34254764  0.44885813  0.59591434     0.11300
H1423       H  0.40568422  0.50840928  0.59633701     0.07600
C1424       C  0.47134055  0.56363680  0.61558539    -0.11500
C1425       C  0.50656544  0.59910833  0.61455145    -0.10800
C1426       C  0.51040286  0.63266425  0.62344180    -0.01700
C1427       C  0.47832374  0.63002025  0.63338340    -0.11900
C1428       C  0.44297898  0.59472242  0.63419674    -0.10300
H1429       H  0.46948933  0.53815237  0.60882631     0.07600
H1430       H  0.53091129  0.60016798  0.60695743     0.11300
H1431       H  0.48028468  0.65547016  0.64025612     0.11100
H1432       H  0.41849237  0.59404080  0.64144636     0.07600
C1433       C  0.88399214  0.00071173  0.60579951    -0.11500
C1434       C  0.89736035  0.02347458  0.62247287     0.05700
C1435       C  0.87615122  0.00851389  0.63944791    -0.10300
C1436       C  0.84199925  0.97207243  0.63966327    -0.11900
C1437       C  0.82843200  0.94952921  0.62294703    -0.01700
C1438       C  0.84998450  0.96408908  0.60604996    -0.10800
C1439       C  0.93295232  0.06285338  0.62211087     0.05700
H1440       H  0.88605285  0.02486545  0.65263271     0.07600
H1441       H  0.82628744  0.96149808  0.65297454     0.11100
H1442       H  0.84014736  0.94754551  0.59290969     0.11300
H1443       H  0.89929800  0.01155268  0.59241876     0.07600
C1444       C  0.96517147  0.07008055  0.61077269    -0.11500
C1445       C  0.99842264  0.10719086  0.61027296    -0.10800
C1446       C  0.00039992  0.13788452  0.62124496    -0.01700
C1447       C  0.96828849  0.13068672  0.63263633    -0.11900
C1448       C  0.93488570  0.09364043  0.63300301    -0.10300
H1449       H  0.96496349  0.04690227  0.60247429     0.07600
H1450       H  0.02283142  0.11163277  0.60149482     0.11300
H1451       H  0.96882205  0.15375291  0.64118159     0.11100
H1452       H  0.91034756  0.08929133  0.64163408     0.07600
C1453       C  0.40402544  0.83400652  0.61458498    -0.11500
C1454       C  0.40573944  0.80381584  0.62444561     0.05700
C1455       C  0.37152516  0.77443298  0.63314399    -0.10300
C1456       C  0.33663095  0.77525098  0.63198320    -0.11900
C1457       C  0.33494489  0.80515713  0.62187987    -0.01700
C1458       C  0.36898577  0.83443296  0.61314333    -0.10800
C1459       C  0.44282046  0.80260689  0.62514431     0.05700
H1460       H  0.37143994  0.75036818  0.64056841     0.07600
H1461       H  0.31078026  0.75208760  0.63879186     0.11100
H1462       H  0.36872738  0.85809410  0.60546641     0.11300
H1463       H  0.42990536  0.85768641  0.60809184     0.07600
C1464       C  0.46837361  0.81586651  0.60949223    -0.11500
C1465       C  0.50305445  0.81481935  0.60984083    -0.10800
C1466       C  0.51304695  0.79982866  0.62572429    -0.01700
C1467       C  0.48764858  0.78647725  0.64144168    -0.11900
C1468       C  0.45297069  0.78802565  0.64119392    -0.10300
H1469       H  0.46130649  0.82641659  0.59670171     0.07600
H1470       H  0.52170955  0.82514765  0.59738876     0.11300
H1471       H  0.49464577  0.77504719  0.65394507     0.11100
H1472       H  0.43434299  0.77813599  0.65364860     0.07600
C1473       C  0.87786108  0.77460007  0.63093521    -0.11500
C1474       C  0.90878381  0.80464779  0.62057796     0.05700
C1475       C  0.90161819  0.83065973  0.61001779    -0.10300
C1476       C  0.86452922  0.82696857  0.61001737    -0.11900
C1477       C  0.83376805  0.79725265  0.62063197    -0.01700
C1478       C  0.84086724  0.77104853  0.63103430    -0.10800
C1479       C  0.94834698  0.80888918  0.62100816     0.05700
H1480       H  0.92487146  0.85435720  0.60204739     0.07600
H1481       H  0.86013268  0.84779222  0.60190786     0.11100
H1482       H  0.81774963  0.74758203  0.63917855     0.11300
H1483       H  0.88217037  0.75355944  0.63888673     0.07600
C1484       C  0.96302148  0.80221048  0.63800238    -0.11500
C1485       C  0.99947702  0.80461038  0.63837519    -0.10800
C1486       C  0.02239207  0.81420733  0.62180450    -0.01700
C1487       C  0.00821923  0.82183819  0.60489379    -0.11900
C1488       C  0.97152529  0.81907386  0.60448158    -0.10300
H1489       H  0.94630930  0.79516284  0.65107717     0.07600
H1490       H  0.00970698  0.79891267  0.65167451     0.11300
H1491       H  0.02504604  0.82898382  0.59184611     0.11100
H1492       H  0.96091587  0.82399357  0.59111248     0.07600
C1493       C  0.70081993  0.70006215  0.51813781    -0.11500
C1494       C  0.73975693  0.72004139  0.51175451     0.05700
C1495       C  0.76761703  0.75217082  0.52241735    -0.10300
C1496       C  0.75687741  0.76385253  0.53907640    -0.11900
C1497       C  0.71803764  0.74349586  0.54561241    -0.01700
C1498       C  0.69012238  0.71156988  0.53485386    -0.10800
C1499       C  0.75135545  0.70737719  0.49413272     0.05700
H1500       H  0.79798746  0.76791674  0.51810368     0.07600
H1501       H  0.77920225  0.78848651  0.54699183     0.11100
H1502       H  0.65986570  0.69534441  0.53933939     0.11300
H1503       H  0.67844015  0.67566903  0.51012359     0.07600
C1504       C  0.73455895  0.66747167  0.48956673    -0.11500
C1505       C  0.74599945  0.65572293  0.47315610    -0.10800
C1506       C  0.77475517  0.68359150  0.46099975    -0.01700
C1507       C  0.79137224  0.72342941  0.46551679    -0.11900
C1508       C  0.77967993  0.73516297  0.48180036    -0.10300
H1509       H  0.71302619  0.64522094  0.49884615     0.07600
H1510       H  0.73260430  0.62477632  0.47011217     0.11300
H1511       H  0.81317282  0.74570317  0.45633365     0.11100
H1512       H  0.79260945  0.76613259  0.48461465     0.07600
loop_ 
_geom_bond_atom_site_label_1 
_geom_bond_atom_site_label_2 
_geom_bond_distance 
_geom_bond_site_symmetry_2 
_ccdc_geom_bond_type 
Zr1           O2   2.441       .  S
Zr1           O3   2.445       .  S
Zr1           O4   2.437       .  S
Zr1           O7   2.419       .  S
Zr1           O9   2.377       .  S
Zr1          O10   2.383       .  S
Zr1          O11   2.404       .  S
Zr1          O12   2.407       .  S
O2           H58   0.990       .  S
O2           H66   0.991       .  S
O3           C23   1.286       .  A
O4           C25   1.285       .  A
O5          Zr15   2.433       .  S
O5           C24   1.286       .  A
O6          Zr14   2.438       .  S
O6           C25   1.286       .  A
O7           C24   1.283       .  A
O8          Zr16   2.405       .  S
O8           C23   1.280       .  A
O9          Zr14   2.389       .  S
O9          Zr16   2.382       .  S
O10         Zr15   2.386       .  S
O10         Zr16   2.371       .  S
O10          H45   0.966       .  S
O11         Zr14   2.394       .  S
O11         Zr31   2.396       .  S
O11          H48   0.966       .  S
O12         Zr15   2.392       .  S
O12         Zr31   2.400       .  S
Zr13         O38   2.441       .  S
Zr13         O32   2.417       .  S
Zr13         O40   2.440       .  S
Zr13         O28   2.438       .  S
Zr13         O19   2.397       .  S
Zr13         O20   2.399       .  S
Zr13         O21   2.380       .  S
Zr13         O22   2.384       .  S
Zr14         O33   2.437       .  S
Zr14         O26   2.434       .  S
Zr14         O27   2.419       .  S
Zr14         O20   2.399       .  S
Zr14         O21   2.389       .  S
Zr15         O17   2.435       .  S
Zr15         O39   2.437       .  S
Zr15         O41   2.434       .  S
Zr15         O19   2.392       .  S
Zr15         O22   2.389       .  S
Zr16         O42   2.435       .  S
Zr16         O43   2.437       .  S
Zr16         O18   2.435       .  S
Zr16         O19   2.392       .  S
Zr16         O20   2.386       .  S
O17          H54   0.990       .  S
O18          H49   0.990       .  S
O18          H63   0.990       .  S
O20          H46   0.966       .  S
O21         Zr31   2.370       .  S
O22         Zr31   2.371       .  S
O22          H47   0.966       .  S
C23        C1466   1.483       .  S
C24        C1426   1.478       .  S
C25        C1397   1.485       .  S
O26          H62   0.990       .  S
O27          C29   1.284       .  A
O28          C29   1.287       .  A
C29        C1437   1.479       .  S
O30         Zr31   2.440       .  S
O30          H59   0.990       .  S
Zr31         O34   2.438       .  S
Zr31         O35   2.438       .  S
Zr31         O36   2.441       .  S
O32          C37   1.282       .  A
O33          H50   0.990       .  S
O33          H65   0.990       .  S
O34          H51   0.990       .  S
O35          H55   0.990       .  S
O35          H64   0.990       .  S
O36          C37   1.286       .  A
C37        C1477   1.483       .  S
O38          H57   0.991       .  S
O38          H61   0.990       .  S
O39          H53   0.990       .  S
O39          H60   0.990       .  S
O40          C44   1.287       .  A
O41          C44   1.286       .  A
O42          H52   0.990       .  S
O43          H56   0.990       .  S
C44        C1497   1.488       .  S
Zr67         O68   2.440       .  S
Zr67         O69   2.446       .  S
Zr67         O70   2.436       .  S
Zr67         O73   2.415       .  S
Zr67         O75   2.375       .  S
Zr67         O76   2.381       .  S
Zr67         O77   2.405       .  S
Zr67         O78   2.408       .  S
O68         H124   0.990       .  S
O68         H132   0.990       .  S
O69          C89   1.286       .  A
O70          C91   1.284       .  A
O71         Zr81   2.428       .  S
O71          C90   1.285       .  A
O72         Zr80   2.438       .  S
O72          C91   1.285       .  A
O73          C90   1.282       .  A
O74         Zr82   2.406       .  S
O74          C89   1.279       .  A
O75         Zr80   2.394       .  S
O75         Zr82   2.384       .  S
O76         Zr81   2.390       .  S
O76         Zr82   2.372       .  S
O76         H111   0.966       .  S
O77         Zr80   2.396       .  S
O77         Zr97   2.395       .  S
O77         H114   0.965       .  S
O78         Zr81   2.390       .  S
O78         Zr97   2.395       .  S
Zr79        O104   2.441       .  S
Zr79         O98   2.420       .  S
Zr79        O106   2.435       .  S
Zr79         O94   2.439       .  S
Zr79         O85   2.398       .  S
Zr79         O86   2.399       .  S
Zr79         O87   2.379       .  S
Zr79         O88   2.385       .  S
Zr80         O99   2.438       .  S
Zr80         O92   2.436       .  S
Zr80         O93   2.432       .  S
Zr80         O86   2.399       .  S
Zr80         O87   2.389       .  S
Zr81         O83   2.438       .  S
Zr81        O105   2.439       .  S
Zr81        O107   2.431       .  S
Zr81         O85   2.392       .  S
Zr81         O88   2.389       .  S
Zr82        O108   2.435       .  S
Zr82        O109   2.435       .  S
Zr82         O84   2.436       .  S
Zr82         O85   2.394       .  S
Zr82         O86   2.386       .  S
O83         H120   0.990       .  S
O84         H115   0.990       .  S
O84         H129   0.990       .  S
O86         H112   0.966       .  S
O87         Zr97   2.374       .  S
O88         Zr97   2.368       .  S
O88         H113   0.966       .  S
C89        C1337   1.482       .  S
C90        C1377   1.475       .  S
C91        C1297   1.485       .  S
O92         H128   0.990       .  S
O93          C95   1.286       .  A
O94          C95   1.287       .  A
C95        C1366   1.481       .  S
O96         Zr97   2.437       .  S
O96         H125   0.990       .  S
Zr97        O100   2.435       .  S
Zr97        O101   2.440       .  S
Zr97        O102   2.433       .  S
O98         C103   1.283       .  A
O99         H116   0.990       .  S
O99         H131   0.990       .  S
O100        H117   0.990       .  S
O101        H121   0.990       .  S
O101        H130   0.990       .  S
O102        C103   1.284       .  A
C103       C1317   1.483       .  S
O104        H123   0.990       .  S
O104        H127   0.990       .  S
O105        H119   0.990       .  S
O105        H126   0.990       .  S
O106        C110   1.287       .  A
O107        C110   1.285       .  A
O108        H118   0.990       .  S
O109        H122   0.989       .  S
C110       C1506   1.484       .  S
Zr133       O134   2.440       .  S
Zr133       O135   2.440       .  S
Zr133       O136   2.431       .  S
Zr133       O139   2.414       .  S
Zr133       O141   2.378       .  S
Zr133       O142   2.382       .  S
Zr133       O143   2.402       .  S
Zr133       O144   2.408       .  S
O134        H190   0.990       .  S
O134        H198   0.990       .  S
O135        C155   1.285       .  A
O136        C157   1.283       .  A
O137       Zr147   2.434       .  S
O137        C156   1.285       .  A
O138       Zr146   2.440       .  S
O138        C157   1.286       .  A
O139        C156   1.282       .  A
O140       Zr148   2.403       .  S
O140        C155   1.279       .  A
O141       Zr146   2.392       .  S
O141       Zr148   2.385       .  S
O142       Zr147   2.388       .  S
O142       Zr148   2.372       .  S
O142        H177   0.966       .  S
O143       Zr146   2.399       .  S
O143       Zr163   2.391       .  S
O143        H180   0.965       .  S
O144       Zr147   2.395       .  S
O144       Zr163   2.405       .  S
Zr145       O170   2.442       .  S
Zr145       O164   2.418       .  S
Zr145       O172   2.424       .  S
Zr145       O160   2.434       .  S
Zr145       O151   2.400       .  S
Zr145       O152   2.395       .  S
Zr145       O153   2.377       .  S
Zr145       O154   2.383       .  S
Zr146       O165   2.435       .  S
Zr146       O158   2.434       .  S
Zr146       O159   2.429       .  S
Zr146       O152   2.396       .  S
Zr146       O153   2.391       .  S
Zr147       O149   2.436       .  S
Zr147       O171   2.439       .  S
Zr147       O173   2.431       .  S
Zr147       O151   2.396       .  S
Zr147       O154   2.388       .  S
Zr148       O174   2.436       .  S
Zr148       O175   2.435       .  S
Zr148       O150   2.437       .  S
Zr148       O151   2.392       .  S
Zr148       O152   2.383       .  S
O149        H186   0.990       .  S
O150        H181   0.990       .  S
O150        H195   0.990       .  S
O152        H178   0.966       .  S
O153       Zr163   2.372       .  S
O154       Zr163   2.363       .  S
O154        H179   0.966       .  S
C155       C1386   1.479       .  S
C156       C1277   1.479       .  S
C157       C1217   1.485       .  S
O158        H194   0.990       .  S
O159        C161   1.285       .  A
O160        C161   1.286       .  A
C161       C1257   1.482       .  S
O162       Zr163   2.439       .  S
O162        H191   0.991       .  S
Zr163       O166   2.435       .  S
Zr163       O167   2.440   1_545  S
Zr163       O168   2.437       .  S
O164        C169   1.282       .  A
O165        H182   0.990       .  S
O165        H197   0.990       .  S
O166        H183   0.990       .  S
O167        H187   0.990       .  S
O167        H196   0.990   1_565  S
O168        C169   1.285       .  A
C169       C1357   1.486   1_545  S
O170        H189   0.990       .  S
O170        H193   0.990       .  S
O171        H185   0.990       .  S
O171        H192   0.990       .  S
O172        C176   1.285       .  A
O173        C176   1.286       .  A
O174        H184   0.990       .  S
O175        H188   0.990       .  S
C176       C1237   1.478       .  S
Zr199       O200   2.443       .  S
Zr199       O201   2.447       .  S
Zr199       O202   2.436       .  S
Zr199       O205   2.415       .  S
Zr199       O207   2.377       .  S
Zr199       O208   2.381       .  S
Zr199       O209   2.407       .  S
Zr199       O210   2.411       .  S
O200        H256   0.991       .  S
O200        H264   0.990       .  S
O201        C221   1.286       .  A
O202        C223   1.284       .  A
O203       Zr213   2.439       .  S
O203        C222   1.287       .  A
O204       Zr212   2.437       .  S
O204        C223   1.285       .  A
O205        C222   1.282       .  A
O206       Zr214   2.405       .  S
O206        C221   1.279       .  A
O207       Zr212   2.393       .  S
O207       Zr214   2.385       .  S
O208       Zr213   2.391       .  S
O208       Zr214   2.373       .  S
O208        H243   0.966       .  S
O209       Zr212   2.396       .  S
O209       Zr229   2.396       .  S
O209        H246   0.965       .  S
O210       Zr213   2.392       .  S
O210       Zr229   2.404       .  S
Zr211       O236   2.441       .  S
Zr211       O230   2.420       .  S
Zr211       O238   2.440       .  S
Zr211       O226   2.432       .  S
Zr211       O217   2.398       .  S
Zr211       O218   2.398       .  S
Zr211       O219   2.377       .  S
Zr211       O220   2.382       .  S
Zr212       O231   2.436       .  S
Zr212       O224   2.434       .  S
Zr212       O225   2.424       .  S
Zr212       O218   2.395       .  S
Zr212       O219   2.387       .  S
Zr213       O215   2.433       .  S
Zr213       O237   2.436       .  S
Zr213       O239   2.431       .  S
Zr213       O217   2.395       .  S
Zr213       O220   2.391       .  S
Zr214       O240   2.437       .  S
Zr214       O241   2.435       .  S
Zr214       O216   2.435       .  S
Zr214       O217   2.392       .  S
Zr214       O218   2.386       .  S
O215        H252   0.990       .  S
O216        H247   0.990       .  S
O216        H261   0.990       .  S
O218        H244   0.966       .  S
O219       Zr229   2.367       .  S
O220       Zr229   2.370       .  S
O220        H245   0.966       .  S
C221       C1177   1.480       .  S
C222       C1457   1.480       .  S
C223       C1157   1.485       .  S
O224        H260   0.990       .  S
O225        C227   1.285       .  A
O226        C227   1.285       .  A
C227       C1486   1.480       .  S
O228       Zr229   2.437       .  S
O228        H257   0.990       .  S
Zr229       O232   2.437       .  S
Zr229       O233   2.440       .  S
Zr229       O234   2.440       .  S
O230        C235   1.283       .  A
O231        H248   0.990       .  S
O231        H263   0.990       .  S
O232        H249   0.990       .  S
O233        H253   0.990       .  S
O233        H262   0.990       .  S
O234        C235   1.286       .  A
C235       C1206   1.485       .  S
O236        H255   0.990       .  S
O236        H259   0.990       .  S
O237        H251   0.990       .  S
O237        H258   0.990       .  S
O238        C242   1.287       .  A
O239        C242   1.286       .  A
O240        H250   0.990       .  S
O241        H254   0.990       .  S
C242       C1246   1.486       .  S
Zr265       O266   2.441       .  S
Zr265       O267   2.442       .  S
Zr265       O268   2.438       .  S
Zr265       O271   2.426       .  S
Zr265       O273   2.380       .  S
Zr265       O274   2.381       .  S
Zr265       O275   2.409       .  S
Zr265       O276   2.405       .  S
O266        H322   0.990       .  S
O266        H330   0.990       .  S
O267        C287   1.286       .  A
O268        C289   1.285       .  A
O269       Zr279   2.427       .  S
O269        C288   1.284       .  A
O270       Zr278   2.446       .  S
O270        C289   1.287       .  A
O271        C288   1.284       .  A
O272       Zr280   2.407       .  S
O272        C287   1.280       .  A
O273       Zr278   2.395       .  S
O273       Zr280   2.384       .  S
O274       Zr279   2.389       .  S
O274       Zr280   2.376       .  S
O274        H309   0.966       .  S
O275       Zr278   2.399       .  S
O275       Zr295   2.394       .  S
O275        H312   0.965       .  S
O276       Zr279   2.391       .  S
O276       Zr295   2.399       .  S
Zr277       O302   2.441       .  S
Zr277       O296   2.411       .  S
Zr277       O304   2.430       .  S
Zr277       O292   2.427       .  S
Zr277       O283   2.394       .  S
Zr277       O284   2.396       .  S
Zr277       O285   2.381       .  S
Zr277       O286   2.380       .  S
Zr278       O297   2.437       .  S
Zr278       O290   2.433       .  S
Zr278       O291   2.439       .  S
Zr278       O284   2.395       .  S
Zr278       O285   2.387       .  S
Zr279       O281   2.436       .  S
Zr279       O303   2.434       .  S
Zr279       O305   2.428       .  S
Zr279       O283   2.394       .  S
Zr279       O286   2.385       .  S
Zr280       O306   2.436       .  S
Zr280       O307   2.435       .  S
Zr280       O282   2.437       .  S
Zr280       O283   2.395       .  S
Zr280       O284   2.385       .  S
O281        H318   0.990       .  S
O282        H313   0.990       .  S
O282        H327   0.990       .  S
O284        H310   0.966       .  S
O285       Zr295   2.372       .  S
O286       Zr295   2.368       .  S
O286        H311   0.966       .  S
C287       C1417   1.481       .  S
C288       C1186   1.481       .  S
C289       C1117   1.488       .  S
O290        H326   0.990       .  S
O291        C293   1.287       .  A
O292        C293   1.285       .  A
C293       C1197   1.482       .  S
O294       Zr295   2.439       .  S
O294        H323   0.990       .  S
Zr295       O298   2.438       .  S
Zr295       O299   2.440       .  S
Zr295       O300   2.434       .  S
O296        C301   1.281       .  A
O297        H314   0.990       .  S
O297        H329   0.990       .  S
O298        H315   0.990       .  S
O299        H319   0.990       .  S
O299        H328   0.990       .  S
O300        C301   1.285       .  A
C301       C1446   1.478       .  S
O302        H321   0.990       .  S
O302        H325   0.990       .  S
O303        H317   0.990       .  S
O303        H324   0.990       .  S
O304        C308   1.285       .  A
O305        C308   1.285       .  A
O306        H316   0.990       .  S
O307        H320   0.990       .  S
C308       C1137   1.482       .  S
Zr331       O332   2.441       .  S
Zr331       O333   2.442       .  S
Zr331       O334   2.439       .  S
Zr331       O337   2.415       .  S
Zr331       O339   2.377       .  S
Zr331       O340   2.382       .  S
Zr331       O341   2.403       .  S
Zr331       O342   2.410       .  S
O332        H388   0.990       .  S
O332        H396   0.990       .  S
O333        C353   1.285       .  A
O334        C355   1.285       .  A
O335       Zr345   2.442       .  S
O335        C354   1.287       .  A
O336       Zr344   2.435       .  S
O336        C355   1.285       .  A
O337        C354   1.282       .  A
O338       Zr346   2.407       .  S
O338        C353   1.280       .  A
O339       Zr344   2.393       .  S
O339       Zr346   2.385       .  S
O340       Zr345   2.389       .  S
O340       Zr346   2.372       .  S
O340        H375   0.966       .  S
O341       Zr344   2.395       .  S
O341       Zr361   2.393       .  S
O341        H378   0.965       .  S
O342       Zr345   2.392       .  S
O342       Zr361   2.400       .  S
Zr343       O368   2.442       .  S
Zr343       O362   2.423       .  S
Zr343       O370   2.425       .  S
Zr343       O358   2.431       .  S
Zr343       O349   2.398       .  S
Zr343       O350   2.397       .  S
Zr343       O351   2.375       .  S
Zr343       O352   2.385       .  S
Zr344       O363   2.436       .  S
Zr344       O356   2.435       .  S
Zr344       O357   2.425       .  S
Zr344       O350   2.395       .  S
Zr344       O351   2.386       .  S
Zr345       O347   2.436       .  S
Zr345       O369   2.436       .  S
Zr345       O371   2.433       .  S
Zr345       O349   2.395       .  S
Zr345       O352   2.388       .  S
Zr346       O372   2.437       .  S
Zr346       O373   2.435       .  S
Zr346       O348   2.437       .  S
Zr346       O349   2.391       .  S
Zr346       O350   2.390       .  S
O347        H384   0.990       .  S
O348        H379   0.990       .  S
O348        H393   0.990       .  S
O350        H376   0.966       .  S
O351       Zr361   2.371       .  S
O352       Zr361   2.369       .  S
O352        H377   0.966       .  S
C353       C1286   1.479       .  S
C354       C1346   1.482       .  S
C355       C1097   1.486       .  S
O356        H392   0.990       .  S
O357        C359   1.284       .  A
O358        C359   1.285       .  A
C359       C1326   1.479   1_545  S
O360       Zr361   2.439       .  S
O360        H389   0.990       .  S
Zr361       O364   2.437       .  S
Zr361       O365   2.441       .  S
Zr361       O366   2.436       .  S
O362        C367   1.284       .  A
O363        H380   0.990       .  S
O363        H395   0.990       .  S
O364        H381   0.990       .  S
O365        H385   0.990       .  S
O365        H394   0.990       .  S
O366        C367   1.286       .  A
C367       C1266   1.483   1_655  S
O368        H387   0.990       .  S
O368        H391   0.990       .  S
O369        H383   0.990       .  S
O369        H390   0.990       .  S
O370        C374   1.284       .  A
O371        C374   1.286       .  A
O372        H382   0.990       .  S
O373        H386   0.990       .  S
C374       C1146   1.480       .  S
Zr397       O398   2.437       .  S
Zr397       O399   2.417       .  S
Zr397       O400   2.433       .  S
Zr397       O403   2.433       .  S
Zr397       O405   2.379       .  S
Zr397       O406   2.380       .  S
Zr397       O407   2.403       .  S
Zr397       O408   2.397       .  S
O398        H454   0.990       .  S
O398        H462   0.990       .  S
O399        C419   1.282       .  A
O400        C421   1.285       .  A
O401       Zr411   2.418       .  S
O401        C420   1.283       .  A
O402       Zr410   2.435       .  S
O402        C421   1.286       .  A
O403        C420   1.286       .  A
O404       Zr412   2.433       .  S
O404        C419   1.284       .  A
O405       Zr410   2.389       .  S
O405       Zr412   2.370       .  S
O406       Zr411   2.387       .  S
O406       Zr412   2.372       .  S
O406        H441   0.966       .  S
O407       Zr410   2.395       .  S
O407       Zr427   2.400       .  S
O407        H444   0.966       .  S
O408       Zr411   2.387       .  S
O408       Zr427   2.390       .  S
Zr409       O434   2.444       .  S
Zr409       O428   2.435       .  S
Zr409       O436   2.440       .  S
Zr409       O424   2.414       .  S
Zr409       O415   2.397       .  S
Zr409       O416   2.408       .  S
Zr409       O417   2.382       .  S
Zr409       O418   2.382       .  S
Zr410       O429   2.436       .  S
Zr410       O422   2.437       .  S
Zr410       O423   2.434       .  S
Zr410       O416   2.395       .  S
Zr410       O417   2.386       .  S
Zr411       O413   2.436       .  S
Zr411       O435   2.439       .  S
Zr411       O437   2.421       .  S
Zr411       O415   2.389       .  S
Zr411       O418   2.384       .  S
Zr412       O438   2.434       .  S
Zr412       O439   2.435       .  S
Zr412       O414   2.435       .  S
Zr412       O415   2.396       .  S
Zr412       O416   2.397       .  S
O413        H450   0.990       .  S
O414        H445   0.990       .  S
O414        H459   0.990       .  S
O416        H442   0.966       .  S
O417       Zr427   2.373       .  S
O418       Zr427   2.382       .  S
O418        H443   0.966       .  S
C419       C1057   1.481       .  S
C420       C1026   1.477       .  S
C421       C1077   1.487       .  S
O422        H458   0.990       .  S
O423        C425   1.286       .  A
O424        C425   1.282       .  A
C425        C997   1.475       .  S
O426       Zr427   2.439       .  S
O426        H455   0.990       .  S
Zr427       O430   2.438       .  S
Zr427       O431   2.439       .  S
Zr427       O432   2.421       .  S
O428        C433   1.285       .  A
O429        H446   0.990       .  S
O429        H461   0.990       .  S
O430        H447   0.990       .  S
O431        H451   0.990       .  S
O431        H460   0.990       .  S
O432        C433   1.283       .  A
C433       C1046   1.484       .  S
O434        H453   0.990       .  S
O434        H457   0.991       .  S
O435        H449   0.990       .  S
O435        H456   0.990       .  S
O436        C440   1.286       .  A
O437        C440   1.284       .  A
O438        H448   0.990       .  S
O439        H452   0.990       .  S
C440       C1406   1.485       .  S
Zr463       O464   2.440       .  S
Zr463       O465   2.422       .  S
Zr463       O466   2.427       .  S
Zr463       O469   2.427       .  S
Zr463       O471   2.381       .  S
Zr463       O472   2.383       .  S
Zr463       O473   2.401       .  S
Zr463       O474   2.397       .  S
O464        H520   0.990       .  S
O464        H528   0.990       .  S
O465        C485   1.282       .  A
O466        C487   1.284       .  A
O467       Zr477   2.417       .  S
O467        C486   1.283       .  A
O468       Zr476   2.437       .  S
O468        C487   1.286       .  A
O469        C486   1.284       .  A
O470       Zr478   2.432       .  S
O470        C485   1.284       .  A
O471       Zr476   2.390       .  S
O471       Zr478   2.373       .  S
O472       Zr477   2.389       .  S
O472       Zr478   2.374       .  S
O472        H507   0.966       .  S
O473       Zr476   2.396       .  S
O473       Zr493   2.397       .  S
O473        H510   0.966       .  S
O474       Zr477   2.386       .  S
O474       Zr493   2.389       .  S
Zr475       O500   2.447       .  S
Zr475       O494   2.433       .  S
Zr475       O502   2.440       .  S
Zr475       O490   2.422       .  S
Zr475       O481   2.396       .  S
Zr475       O482   2.410       .  S
Zr475       O483   2.380       .  S
Zr475       O484   2.382       .  S
Zr476       O495   2.437       .  S
Zr476       O488   2.434       .  S
Zr476       O489   2.433       .  S
Zr476       O482   2.400       .  S
Zr476       O483   2.385       .  S
Zr477       O479   2.434       .  S
Zr477       O501   2.436       .  S
Zr477       O503   2.424       .  S
Zr477       O481   2.387       .  S
Zr477       O484   2.380       .  S
Zr478       O504   2.435       .  S
Zr478       O505   2.436       .  S
Zr478       O480   2.436       .  S
Zr478       O481   2.394       .  S
Zr478       O482   2.403       .  S
O479        H516   0.990       .  S
O480        H511   0.991       .  S
O480        H525   0.990       .  S
O482        H508   0.966       .  S
O483       Zr493   2.373       .  S
O484       Zr493   2.383       .  S
O484        H509   0.966       .  S
C485        C957   1.483       .  S
C486        C917   1.475       .  S
C487       C1086   1.482       .  S
O488        H524   0.990       .  S
O489        C491   1.286       .  A
O490        C491   1.283       .  A
C491        C946   1.479       .  S
O492       Zr493   2.440       .  S
O492        H521   0.990       .  S
Zr493       O496   2.438       .  S
Zr493       O497   2.441       .  S
Zr493       O498   2.415       .  S
O494        C499   1.285       .  A
O495        H512   0.990       .  S
O495        H527   0.990       .  S
O496        H513   0.990       .  S
O497        H517   0.990       .  S
O497        H526   0.990       .  S
O498        C499   1.282       .  A
C499        C977   1.478       .  S
O500        H519   0.990       .  S
O500        H523   0.990       .  S
O501        H515   0.990       .  S
O501        H522   0.990       .  S
O502        C506   1.286       .  A
O503        C506   1.284       .  A
O504        H514   0.990       .  S
O505        H518   0.990       .  S
C506       C1306   1.487       .  S
Zr529       O530   2.438       .  S
Zr529       O531   2.422       .  S
Zr529       O532   2.437       .  S
Zr529       O535   2.430       .  S
Zr529       O537   2.378       .  S
Zr529       O538   2.383       .  S
Zr529       O539   2.402       .  S
Zr529       O540   2.401       .  S
O530        H586   0.990       .  S
O530        H594   0.990       .  S
O531        C551   1.282       .  A
O532        C553   1.286       .  A
O533       Zr543   2.423       .  S
O533        C552   1.283       .  A
O534       Zr542   2.439       .  S
O534        C553   1.286       .  A
O535        C552   1.285       .  A
O536       Zr544   2.428       .  S
O536        C551   1.284       .  A
O537       Zr542   2.391       .  S
O537       Zr544   2.373       .  S
O538       Zr543   2.388       .  S
O538       Zr544   2.371       .  S
O538        H573   0.966       .  S
O539       Zr542   2.399       .  S
O539       Zr559   2.402       .  S
O539        H576   0.966       .  S
O540       Zr543   2.389       .  S
O540       Zr559   2.390       .  S
Zr541       O566   2.444       .  S
Zr541       O560   2.429       .  S
Zr541       O568   2.432       .  S
Zr541       O556   2.423       .  S
Zr541       O547   2.397       .  S
Zr541       O548   2.405       .  S
Zr541       O549   2.378       .  S
Zr541       O550   2.383       .  S
Zr542       O561   2.436       .  S
Zr542       O554   2.433       .  S
Zr542       O555   2.442       .  S
Zr542       O548   2.396       .  S
Zr542       O549   2.387       .  S
Zr543       O545   2.435       .  S
Zr543       O567   2.439       .  S
Zr543       O569   2.428       .  S
Zr543       O547   2.385       .  S
Zr543       O550   2.384       .  S
Zr544       O570   2.436       .  S
Zr544       O571   2.435       .  S
Zr544       O546   2.436   1_545  S
Zr544       O547   2.388       .  S
Zr544       O548   2.404       .  S
O545        H582   0.990       .  S
O546        H577   0.990       .  S
O546        H591   0.990       .  S
O548        H574   0.966       .  S
O549       Zr559   2.372       .  S
O550       Zr559   2.381       .  S
O550        H575   0.966       .  S
C551        C926   1.479   1_545  S
C552        C877   1.477       .  S
C553        C857   1.490       .  S
O554        H590   0.990       .  S
O555        C557   1.288       .  A
O556        C557   1.283       .  A
C557        C897   1.484       .  S
O558       Zr559   2.440       .  S
O558        H587   0.990       .  S
Zr559       O562   2.436       .  S
Zr559       O563   2.440       .  S
Zr559       O564   2.421       .  S
O560        C565   1.284       .  A
O561        H578   0.990       .  S
O561        H593   0.990       .  S
O562        H579   0.990       .  S
O563        H583   0.990       .  S
O563        H592   0.990       .  S
O564        C565   1.283       .  A
C565        C937   1.479       .  S
O566        H585   0.990       .  S
O566        H589   0.990       .  S
O567        H581   0.990       .  S
O567        H588   0.990       .  S
O568        C572   1.285       .  A
O569        C572   1.285       .  A
O570        H580   0.990       .  S
O571        H584   0.990       .  S
C572       C1226   1.486       .  S
Zr595       O596   2.441       .  S
Zr595       O597   2.421       .  S
Zr595       O598   2.433       .  S
Zr595       O601   2.430       .  S
Zr595       O603   2.383       .  S
Zr595       O604   2.383       .  S
Zr595       O605   2.399       .  S
Zr595       O606   2.398       .  S
O596        H652   0.990       .  S
O596        H660   0.990       .  S
O597        C617   1.283       .  A
O598        C619   1.285       .  A
O599       Zr609   2.427       .  S
O599        C618   1.285       .  A
O600       Zr608   2.451       .  S
O600        C619   1.289       .  A
O601        C618   1.285       .  A
O602       Zr610   2.426       .  S
O602        C617   1.283       .  A
O603       Zr608   2.387       .  S
O603       Zr610   2.374       .  S
O604       Zr609   2.385       .  S
O604       Zr610   2.374       .  S
O604        H639   0.966       .  S
O605       Zr608   2.396       .  S
O605       Zr625   2.398       .  S
O605        H642   0.966       .  S
O606       Zr609   2.393       .  S
O606       Zr625   2.395       .  S
Zr607       O632   2.447       .  S
Zr607       O626   2.444       .  S
Zr607       O634   2.446       .  S
Zr607       O622   2.430       .  S
Zr607       O613   2.398       .  S
Zr607       O614   2.414       .  S
Zr607       O615   2.380       .  S
Zr607       O616   2.382       .  S
Zr608       O627   2.435       .  S
Zr608       O620   2.436       .  S
Zr608       O621   2.438       .  S
Zr608       O614   2.399       .  S
Zr608       O615   2.393       .  S
Zr609       O611   2.435       .  S
Zr609       O633   2.438       .  S
Zr609       O635   2.431       .  S
Zr609       O613   2.386       .  S
Zr609       O616   2.389       .  S
Zr610       O636   2.436       .  S
Zr610       O637   2.435       .  S
Zr610       O612   2.435       .  S
Zr610       O613   2.392       .  S
Zr610       O614   2.399       .  S
O611        H648   0.990       .  S
O612        H643   0.990       .  S
O612        H657   0.990       .  S
O614        H640   0.966       .  S
O615       Zr625   2.368       .  S
O616       Zr625   2.383       .  S
O616        H641   0.966       .  S
C617        C837   1.478       .  S
C618       C1066   1.481       .  S
C619        C866   1.490       .  S
O620        H656   0.990       .  S
O621        C623   1.287       .  A
O622        C623   1.284       .  A
C623       C1037   1.480       .  S
O624       Zr625   2.439       .  S
O624        H653   0.990       .  S
Zr625       O628   2.436       .  S
Zr625       O629   2.437       .  S
Zr625       O630   2.424       .  S
O626        C631   1.287       .  A
O627        H644   0.990       .  S
O627        H659   0.990       .  S
O628        H645   0.990       .  S
O629        H649   0.990       .  S
O629        H658   0.990       .  S
O630        C631   1.283       .  A
C631        C817   1.486       .  S
O632        H651   0.990       .  S
O632        H655   0.990       .  S
O633        H647   0.990       .  S
O633        H654   0.990       .  S
O634        C638   1.287       .  A
O635        C638   1.285       .  A
O636        H646   0.990       .  S
O637        H650   0.990       .  S
C638       C1166   1.489       .  S
Zr661       O662   2.437       .  S
Zr661       O663   2.417       .  S
Zr661       O664   2.442       .  S
Zr661       O667   2.429       .  S
Zr661       O669   2.378       .  S
Zr661       O670   2.385       .  S
Zr661       O671   2.399       .  S
Zr661       O672   2.401       .  S
O662        H718   0.990       .  S
O662        H726   0.990       .  S
O663        C683   1.282       .  A
O664        C685   1.287       .  A
O665       Zr675   2.418       .  S
O665        C684   1.283       .  A
O666       Zr674   2.448       .  S
O666        C685   1.288       .  A
O667        C684   1.285       .  A
O668       Zr676   2.427       .  S
O668        C683   1.284       .  A
O669       Zr674   2.388       .  S
O669       Zr676   2.372       .  S
O670       Zr675   2.388       .  S
O670       Zr676   2.370       .  S
O670        H705   0.966       .  S
O671       Zr674   2.395       .  S
O671       Zr691   2.395       .  S
O671        H708   0.966       .  S
O672       Zr675   2.391       .  S
O672       Zr691   2.390       .  S
Zr673       O698   2.444       .  S
Zr673       O692   2.435       .  S
Zr673       O700   2.442       .  S
Zr673       O688   2.423       .  S
Zr673       O679   2.394       .  S
Zr673       O680   2.408       .  S
Zr673       O681   2.382       .  S
Zr673       O682   2.381       .  S
Zr674       O693   2.436       .  S
Zr674       O686   2.433       .  S
Zr674       O687   2.441       .  S
Zr674       O680   2.397       .  S
Zr674       O681   2.389       .  S
Zr675       O677   2.435       .  S
Zr675       O699   2.438       .  S
Zr675       O701   2.432       .  S
Zr675       O679   2.384       .  S
Zr675       O682   2.382       .  S
Zr676       O702   2.435       .  S
Zr676       O703   2.435       .  S
Zr676       O678   2.436       .  S
Zr676       O679   2.393       .  S
Zr676       O680   2.399       .  S
O677        H714   0.990       .  S
O678        H709   0.990       .  S
O678        H723   0.990       .  S
O680        H706   0.966       .  S
O681       Zr691   2.373       .  S
O682       Zr691   2.383       .  S
O682        H707   0.966       .  S
C683       C1017   1.478       .  S
C684        C846   1.475       .  S
C685        C806   1.492       .  S
O686        H722   0.990       .  S
O687        C689   1.288       .  A
O688        C689   1.284       .  A
C689        C826   1.483       .  S
O690       Zr691   2.440       .  S
O690        H719   0.990       .  S
Zr691       O694   2.436       .  S
Zr691       O695   2.440       .  S
Zr691       O696   2.416       .  S
O692        C697   1.286       .  A
O693        H710   0.990       .  S
O693        H725   0.990       .  S
O694        H711   0.990       .  S
O695        H715   0.990       .  S
O695        H724   0.990       .  S
O696        C697   1.282       .  A
C697       C1006   1.481       .  S
O698        H717   0.990       .  S
O698        H721   0.990       .  S
O699        H713   0.990       .  S
O699        H720   0.990       .  S
O700        C704   1.287       .  A
O701        C704   1.286       .  A
O702        H712   0.990       .  S
O703        H716   0.990       .  S
C704       C1126   1.491       .  S
Zr727       O728   2.438       .  S
Zr727       O729   2.422       .  S
Zr727       O730   2.437       .  S
Zr727       O733   2.440       .  S
Zr727       O735   2.380       .  S
Zr727       O736   2.382       .  S
Zr727       O737   2.402       .  S
Zr727       O738   2.398       .  S
O728        H784   0.990       .  S
O728        H792   0.990       .  S
O729        C749   1.283       .  A
O730        C751   1.286       .  A
O731       Zr741   2.420       .  S
O731        C750   1.283       .  A
O732       Zr740   2.442       .  S
O732        C751   1.287       .  A
O733        C750   1.287       .  A
O734       Zr742   2.434       .  S
O734        C749   1.285       .  A
O735       Zr740   2.387       .  S
O735       Zr742   2.371       .  S
O736       Zr741   2.388       .  S
O736       Zr742   2.373       .  S
O736        H771   0.966       .  S
O737       Zr740   2.397       .  S
O737       Zr757   2.397       .  S
O737        H774   0.966       .  S
O738       Zr741   2.390       .  S
O738       Zr757   2.390       .  S
Zr739       O764   2.448       .  S
Zr739       O758   2.442       .  S
Zr739       O766   2.446       .  S
Zr739       O754   2.428       .  S
Zr739       O745   2.400       .  S
Zr739       O746   2.411       .  S
Zr739       O747   2.381       .  S
Zr739       O748   2.382       .  S
Zr740       O759   2.436       .  S
Zr740       O752   2.436       .  S
Zr740       O753   2.432       .  S
Zr740       O746   2.399       .  S
Zr740       O747   2.389       .  S
Zr741       O743   2.435       .  S
Zr741       O765   2.439       .  S
Zr741       O767   2.425       .  S
Zr741       O745   2.387       .  S
Zr741       O748   2.384       .  S
Zr742       O768   2.435       .  S
Zr742       O769   2.435       .  S
Zr742       O744   2.436       .  S
Zr742       O745   2.395       .  S
Zr742       O746   2.400       .  S
O743        H780   0.990       .  S
O744        H775   0.990       .  S
O744        H789   0.990       .  S
O746        H772   0.966       .  S
O747       Zr757   2.370       .  S
O748       Zr757   2.384       .  S
O748        H773   0.966       .  S
C749        C886   1.482   1_655  S
C750        C966   1.480   1_545  S
C751        C797   1.491       .  S
O752        H788   0.990       .  S
O753        C755   1.286       .  A
O754        C755   1.284       .  A
C755        C986   1.481       .  S
O756       Zr757   2.440       .  S
O756        H785   0.990       .  S
Zr757       O760   2.438       .  S
Zr757       O761   2.437       .  S
Zr757       O762   2.416       .  S
O758        C763   1.287       .  A
O759        H776   0.990       .  S
O759        H791   0.990       .  S
O760        H777   0.990       .  S
O761        H781   0.990       .  S
O761        H790   0.990       .  S
O762        C763   1.282       .  A
C763        C906   1.483       .  S
O764        H783   0.990       .  S
O764        H787   0.990       .  S
O765        H779   0.990       .  S
O765        H786   0.990       .  S
O766        C770   1.287       .  A
O767        C770   1.284       .  A
O768        H778   0.990       .  S
O769        H782   0.990       .  S
C770       C1106   1.488       .  S
C793        C794   1.409       .  A
C793        C798   1.402       .  A
C793        H803   1.082       .  S
C794        C799   1.502   1_654  S
C794        C795   1.409       .  A
C795        C796   1.402       .  A
C795        H800   1.082       .  S
C796        C797   1.406       .  A
C796        H801   1.083       .  S
C797        C798   1.408       .  A
C798        H802   1.083       .  S
C799        C804   1.409       .  A
C799        C808   1.410       .  A
C804        C805   1.403       .  A
C804        H809   1.082       .  S
C805        C806   1.407       .  A
C805        H810   1.083       .  S
C806        C807   1.407       .  A
C807        C808   1.403       .  A
C807        H811   1.083       .  S
C808        H812   1.082   1_455  S
C813        C814   1.405       .  A
C813        C818   1.396       .  A
C813        H823   1.083       .  S
C814        C819   1.490       .  S
C814        C815   1.408       .  A
C815        C816   1.402       .  A
C815        H820   1.083       .  S
C816        C817   1.406       .  A
C816        H821   1.083       .  S
C817        C818   1.407       .  A
C818        H822   1.083       .  S
C819        C824   1.407       .  A
C819        C828   1.406       .  A
C824        C825   1.397       .  A
C824        H829   1.083       .  S
C825        C826   1.404       .  A
C825        H830   1.083       .  S
C826        C827   1.408       .  A
C827        C828   1.399       .  A
C827        H831   1.083       .  S
C828        H832   1.083       .  S
C833        C834   1.406       .  A
C833        C838   1.395   1_545  A
C833        H843   1.083       .  S
C834        C839   1.483       .  S
C834        C835   1.405       .  A
C835        C836   1.396   1_545  A
C835        H840   1.083       .  S
C836        C837   1.406       .  A
C836        H841   1.083       .  S
C837        C838   1.405       .  A
C838        H842   1.083       .  S
C839        C844   1.404       .  A
C839        C848   1.407       .  A
C844        C845   1.392       .  A
C844        H849   1.083       .  S
C845        C846   1.404       .  A
C845        H850   1.083       .  S
C846        C847   1.404       .  A
C847        C848   1.398       .  A
C847        H851   1.083       .  S
C848        H852   1.082       .  S
C853        C854   1.409       .  A
C853        C858   1.402   1_565  A
C853        H863   1.082       .  S
C854        C859   1.498   1_554  S
C854        C855   1.408       .  A
C855        C856   1.400   1_565  A
C855        H860   1.082       .  S
C856        C857   1.407       .  A
C856        H861   1.083       .  S
C857        C858   1.407       .  A
C858        H862   1.083       .  S
C859        C864   1.409       .  A
C859        C868   1.408       .  A
C864        C865   1.402       .  A
C864        H869   1.082       .  S
C865        C866   1.405       .  A
C865        H870   1.083       .  S
C866        C867   1.407       .  A
C867        C868   1.401       .  A
C867        H871   1.083       .  S
C868        H872   1.082       .  S
C873        C874   1.405       .  A
C873        C878   1.394       .  A
C873        H883   1.083       .  S
C874        C879   1.486       .  S
C874        C875   1.407       .  A
C875        C876   1.399       .  A
C875        H880   1.083       .  S
C876        C877   1.405       .  A
C876        H881   1.083       .  S
C877        C878   1.405       .  A
C878        H882   1.083       .  S
C879        C884   1.406       .  A
C879        C888   1.405       .  A
C884        C885   1.396       .  A
C884        H889   1.083       .  S
C885        C886   1.405       .  A
C885        H890   1.083       .  S
C886        C887   1.407       .  A
C887        C888   1.399       .  A
C887        H891   1.083   1_455  S
C888        H892   1.083       .  S
C893        C894   1.408       .  A
C893        C898   1.398       .  A
C893        H903   1.082       .  S
C894        C899   1.491       .  S
C894        C895   1.406       .  A
C895        C896   1.399       .  A
C895        H900   1.082       .  S
C896        C897   1.408       .  A
C896        H901   1.083       .  S
C897        C898   1.404       .  A
C898        H902   1.083       .  S
C899        C904   1.406       .  A
C899        C908   1.409       .  A
C904        C905   1.395       .  A
C904        H909   1.082       .  S
C905        C906   1.407       .  A
C905        H910   1.083       .  S
C906        C907   1.404       .  A
C907        C908   1.401       .  A
C907        H911   1.083       .  S
C908        H912   1.082       .  S
C913        C914   1.405       .  A
C913        C918   1.393       .  A
C913        H923   1.082       .  S
C914        C919   1.485       .  S
C914        C915   1.407       .  A
C915        C916   1.398   1_455  A
C915        H920   1.082       .  S
C916        C917   1.404       .  A
C916        H921   1.083       .  S
C917        C918   1.404   1_655  A
C918        H922   1.083       .  S
C919        C924   1.406       .  A
C919        C928   1.406       .  A
C924        C925   1.394       .  A
C924        H929   1.082       .  S
C925        C926   1.404       .  A
C925        H930   1.083       .  S
C926        C927   1.406       .  A
C927        C928   1.398       .  A
C927        H931   1.083       .  S
C928        H932   1.082       .  S
C933        C934   1.404       .  A
C933        C938   1.393       .  A
C933        H943   1.083       .  S
C934        C939   1.483       .  S
C934        C935   1.407       .  A
C935        C936   1.399       .  A
C935        H940   1.083       .  S
C936        C937   1.405       .  A
C936        H941   1.083       .  S
C937        C938   1.405       .  A
C938        H942   1.083       .  S
C939        C944   1.407       .  A
C939        C948   1.404       .  A
C944        C945   1.396       .  A
C944        H949   1.083       .  S
C945        C946   1.404       .  A
C945        H950   1.083       .  S
C946        C947   1.406       .  A
C947        C948   1.396       .  A
C947        H951   1.083       .  S
C948        H952   1.083       .  S
C953        C954   1.407       .  A
C953        C958   1.397       .  A
C953        H963   1.082       .  S
C954        C959   1.491       .  S
C954        C955   1.407       .  A
C955        C956   1.399       .  A
C955        H960   1.082       .  S
C956        C957   1.407       .  A
C956        H961   1.083       .  S
C957        C958   1.405       .  A
C958        H962   1.083       .  S
C959        C964   1.407       .  A
C959        C968   1.408       .  A
C964        C965   1.397       .  A
C964        H969   1.083       .  S
C965        C966   1.405       .  A
C965        H970   1.083       .  S
C966        C967   1.404       .  A
C967        C968   1.400       .  A
C967        H971   1.083   1_565  S
C968        H972   1.082       .  S
C973        C974   1.404       .  A
C973        C978   1.393       .  A
C973        H983   1.083       .  S
C974        C979   1.486       .  S
C974        C975   1.408       .  A
C975        C976   1.399       .  A
C975        H980   1.083       .  S
C976        C977   1.405       .  A
C976        H981   1.083       .  S
C977        C978   1.405       .  A
C978        H982   1.083       .  S
C979        C984   1.407       .  A
C979        C988   1.405       .  A
C984        C985   1.396       .  A
C984        H989   1.083       .  S
C985        C986   1.404       .  A
C985        H990   1.083       .  S
C986        C987   1.406       .  A
C987        C988   1.397       .  A
C987        H991   1.083       .  S
C988        H992   1.083       .  S
C993        C994   1.406       .  A
C993        C998   1.395       .  A
C993       H1003   1.083       .  S
C994        C999   1.482       .  S
C994        C995   1.405       .  A
C995        C996   1.396       .  A
C995       H1000   1.083       .  S
C996        C997   1.406       .  A
C996       H1001   1.083       .  S
C997        C998   1.403       .  A
C998       H1002   1.083       .  S
C999       C1004   1.404       .  A
C999       C1008   1.406       .  A
C1004      C1005   1.393       .  A
C1004      H1009   1.083       .  S
C1005      C1006   1.407       .  A
C1005      H1010   1.083       .  S
C1006      C1007   1.405       .  A
C1007      C1008   1.398       .  A
C1007      H1011   1.083       .  S
C1008      H1012   1.083       .  S
C1013      C1014   1.406       .  A
C1013      C1018   1.398       .  A
C1013      H1023   1.082       .  S
C1014      C1019   1.486       .  S
C1014      C1015   1.406       .  A
C1015      C1016   1.393       .  A
C1015      H1020   1.082       .  S
C1016      C1017   1.404   1_655  A
C1016      H1021   1.083       .  S
C1017      C1018   1.406   1_455  A
C1018      H1022   1.083   1_655  S
C1019      C1024   1.408   1_545  A
C1019      C1028   1.406       .  A
C1024      C1025   1.399       .  A
C1024      H1029   1.082       .  S
C1025      C1026   1.405       .  A
C1025      H1030   1.083       .  S
C1026      C1027   1.404       .  A
C1027      C1028   1.393   1_565  A
C1027      H1031   1.083       .  S
C1028      H1032   1.082       .  S
C1033      C1034   1.408       .  A
C1033      C1038   1.397       .  A
C1033      H1043   1.082       .  S
C1034      C1039   1.489       .  S
C1034      C1035   1.406       .  A
C1035      C1036   1.399       .  A
C1035      H1040   1.083       .  S
C1036      C1037   1.406       .  A
C1036      H1041   1.083       .  S
C1037      C1038   1.403       .  A
C1038      H1042   1.083       .  S
C1039      C1044   1.404       .  A
C1039      C1048   1.409       .  A
C1044      C1045   1.393       .  A
C1044      H1049   1.082       .  S
C1045      C1046   1.406       .  A
C1045      H1050   1.083       .  S
C1046      C1047   1.407       .  A
C1047      C1048   1.401       .  A
C1047      H1051   1.083       .  S
C1048      H1052   1.082       .  S
C1053      C1054   1.405       .  A
C1053      C1058   1.396       .  A
C1053      H1063   1.083       .  S
C1054      C1059   1.486       .  S
C1054      C1055   1.407       .  A
C1055      C1056   1.397       .  A
C1055      H1060   1.083       .  S
C1056      C1057   1.405       .  A
C1056      H1061   1.083       .  S
C1057      C1058   1.406       .  A
C1058      H1062   1.083       .  S
C1059      C1064   1.405       .  A
C1059      C1068   1.407       .  A
C1064      C1065   1.395       .  A
C1064      H1069   1.083       .  S
C1065      C1066   1.406   1_655  A
C1065      H1070   1.083   1_655  S
C1066      C1067   1.406       .  A
C1067      C1068   1.399   1_455  A
C1067      H1071   1.083       .  S
C1068      H1072   1.083       .  S
C1073      C1074   1.406       .  A
C1073      C1078   1.398       .  A
C1073      H1083   1.083       .  S
C1074      C1079   1.489   1_556  S
C1074      C1075   1.406       .  A
C1075      C1076   1.400       .  A
C1075      H1080   1.083       .  S
C1076      C1077   1.407       .  A
C1076      H1081   1.083       .  S
C1077      C1078   1.407       .  A
C1078      H1082   1.083       .  S
C1079      C1084   1.407       .  A
C1079      C1088   1.406       .  A
C1084      C1085   1.400       .  A
C1084      H1089   1.083       .  S
C1085      C1086   1.405       .  A
C1085      H1090   1.083       .  S
C1086      C1087   1.406       .  A
C1087      C1088   1.398       .  A
C1087      H1091   1.083       .  S
C1088      H1092   1.083       .  S
C1093      C1094   1.409       .  A
C1093      C1098   1.399       .  A
C1093      H1103   1.082       .  S
C1094      C1099   1.496       .  S
C1094      C1095   1.408       .  A
C1095      C1096   1.400       .  A
C1095      H1100   1.082       .  S
C1096      C1097   1.406       .  A
C1096      H1101   1.083       .  S
C1097      C1098   1.405       .  A
C1098      H1102   1.083       .  S
C1099      C1104   1.407       .  A
C1099      C1108   1.409       .  A
C1104      C1105   1.397       .  A
C1104      H1109   1.082       .  S
C1105      C1106   1.407       .  A
C1105      H1110   1.083       .  S
C1106      C1107   1.406       .  A
C1107      C1108   1.402       .  A
C1107      H1111   1.083       .  S
C1108      H1112   1.082       .  S
C1113      C1114   1.408       .  A
C1113      C1118   1.400       .  A
C1113      H1123   1.082       .  S
C1114      C1119   1.499       .  S
C1114      C1115   1.410       .  A
C1115      C1116   1.402       .  A
C1115      H1120   1.082       .  S
C1116      C1117   1.405       .  A
C1116      H1121   1.083       .  S
C1117      C1118   1.407       .  A
C1118      H1122   1.083       .  S
C1119      C1124   1.410       .  A
C1119      C1128   1.408       .  A
C1124      C1125   1.403       .  A
C1124      H1129   1.082       .  S
C1125      C1126   1.407       .  A
C1125      H1130   1.083       .  S
C1126      C1127   1.407       .  A
C1127      C1128   1.398       .  A
C1127      H1131   1.083       .  S
C1128      H1132   1.082       .  S
C1133      C1134   1.405       .  A
C1133      C1138   1.396       .  A
C1133      H1143   1.083       .  S
C1134      C1139   1.486   1_455  S
C1134      C1135   1.406       .  A
C1135      C1136   1.396       .  A
C1135      H1140   1.083       .  S
C1136      C1137   1.406       .  A
C1136      H1141   1.083       .  S
C1137      C1138   1.406       .  A
C1138      H1142   1.083       .  S
C1139      C1144   1.406       .  A
C1139      C1148   1.406       .  A
C1144      C1145   1.397       .  A
C1144      H1149   1.083   1_655  S
C1145      C1146   1.406       .  A
C1145      H1150   1.083       .  S
C1146      C1147   1.405       .  A
C1147      C1148   1.396       .  A
C1147      H1151   1.083       .  S
C1148      H1152   1.083       .  S
C1153      C1154   1.407       .  A
C1153      C1158   1.399       .  A
C1153      H1163   1.082       .  S
C1154      C1159   1.493       .  S
C1154      C1155   1.408       .  A
C1155      C1156   1.399       .  A
C1155      H1160   1.083       .  S
C1156      C1157   1.406       .  A
C1156      H1161   1.083       .  S
C1157      C1158   1.407       .  A
C1158      H1162   1.083       .  S
C1159      C1164   1.408       .  A
C1159      C1168   1.406       .  A
C1164      C1165   1.402       .  A
C1164      H1169   1.083       .  S
C1165      C1166   1.407       .  A
C1165      H1170   1.083       .  S
C1166      C1167   1.407       .  A
C1167      C1168   1.398       .  A
C1167      H1171   1.083       .  S
C1168      H1172   1.083       .  S
C1173      C1174   1.404       .  A
C1173      C1178   1.394       .  A
C1173      H1183   1.083       .  S
C1174      C1179   1.488       .  S
C1174      C1175   1.409       .  A
C1175      C1176   1.400       .  A
C1175      H1180   1.082       .  S
C1176      C1177   1.404       .  A
C1176      H1181   1.083       .  S
C1177      C1178   1.407       .  A
C1178      H1182   1.083       .  S
C1179      C1184   1.408       .  A
C1179      C1188   1.405       .  A
C1184      C1185   1.397       .  A
C1184      H1189   1.083       .  S
C1185      C1186   1.405       .  A
C1185      H1190   1.083       .  S
C1186      C1187   1.406       .  A
C1187      C1188   1.396       .  A
C1187      H1191   1.083       .  S
C1188      H1192   1.082       .  S
C1193      C1194   1.407       .  A
C1193      C1198   1.398       .  A
C1193      H1203   1.083       .  S
C1194      C1199   1.488       .  S
C1194      C1195   1.406       .  A
C1195      C1196   1.398       .  A
C1195      H1200   1.083       .  S
C1196      C1197   1.405       .  A
C1196      H1201   1.083       .  S
C1197      C1198   1.406       .  A
C1198      H1202   1.083       .  S
C1199      C1204   1.406       .  A
C1199      C1208   1.407       .  A
C1204      C1205   1.398   1_545  A
C1204      H1209   1.083       .  S
C1205      C1206   1.407       .  A
C1205      H1210   1.083       .  S
C1206      C1207   1.406   1_565  A
C1207      C1208   1.398       .  A
C1207      H1211   1.083       .  S
C1208      H1212   1.083       .  S
C1213      C1214   1.410       .  A
C1213      C1218   1.400       .  A
C1213      H1223   1.082       .  S
C1214      C1219   1.495       .  S
C1214      C1215   1.407       .  A
C1215      C1216   1.397       .  A
C1215      H1220   1.082       .  S
C1216      C1217   1.407       .  A
C1216      H1221   1.083       .  S
C1217      C1218   1.405       .  A
C1218      H1222   1.083       .  S
C1219      C1224   1.407       .  A
C1219      C1228   1.409       .  A
C1224      C1225   1.396       .  A
C1224      H1229   1.082       .  S
C1225      C1226   1.406       .  A
C1225      H1230   1.083       .  S
C1226      C1227   1.407       .  A
C1227      C1228   1.401       .  A
C1227      H1231   1.083       .  S
C1228      H1232   1.082       .  S
C1233      C1234   1.406       .  A
C1233      C1238   1.397   1_565  A
C1233      H1243   1.083       .  S
C1234      C1239   1.487       .  S
C1234      C1235   1.406       .  A
C1235      C1236   1.397   1_565  A
C1235      H1240   1.083       .  S
C1236      C1237   1.405       .  A
C1236      H1241   1.083       .  S
C1237      C1238   1.406       .  A
C1238      H1242   1.083       .  S
C1239      C1244   1.406       .  A
C1239      C1248   1.406       .  A
C1244      C1245   1.398       .  A
C1244      H1249   1.083       .  S
C1245      C1246   1.406       .  A
C1245      H1250   1.083       .  S
C1246      C1247   1.407       .  A
C1247      C1248   1.399       .  A
C1247      H1251   1.083       .  S
C1248      H1252   1.083       .  S
C1253      C1254   1.406       .  A
C1253      C1258   1.399       .  A
C1253      H1263   1.083       .  S
C1254      C1259   1.486       .  S
C1254      C1255   1.405       .  A
C1255      C1256   1.396       .  A
C1255      H1260   1.083       .  S
C1256      C1257   1.406       .  A
C1256      H1261   1.083       .  S
C1257      C1258   1.406       .  A
C1258      H1262   1.083       .  S
C1259      C1264   1.405       .  A
C1259      C1268   1.406       .  A
C1264      C1265   1.399       .  A
C1264      H1269   1.083       .  S
C1265      C1266   1.407       .  A
C1265      H1270   1.083   1_455  S
C1266      C1267   1.406       .  A
C1267      C1268   1.397       .  A
C1267      H1271   1.083       .  S
C1268      H1272   1.083       .  S
C1273      C1274   1.404       .  A
C1273      C1278   1.396       .  A
C1273      H1283   1.083       .  S
C1274      C1279   1.485       .  S
C1274      C1275   1.408       .  A
C1275      C1276   1.396       .  A
C1275      H1280   1.083       .  S
C1276      C1277   1.404       .  A
C1276      H1281   1.083       .  S
C1277      C1278   1.407       .  A
C1278      H1282   1.083       .  S
C1279      C1284   1.409       .  A
C1279      C1288   1.404       .  A
C1284      C1285   1.400       .  A
C1284      H1289   1.083       .  S
C1285      C1286   1.404       .  A
C1285      H1290   1.083       .  S
C1286      C1287   1.406       .  A
C1287      C1288   1.392       .  A
C1287      H1291   1.083       .  S
C1288      H1292   1.083       .  S
C1293      C1294   1.407       .  A
C1293      C1298   1.397       .  A
C1293      H1303   1.082       .  S
C1294      C1299   1.496       .  S
C1294      C1295   1.410       .  A
C1295      C1296   1.401       .  A
C1295      H1300   1.082       .  S
C1296      C1297   1.405       .  A
C1296      H1301   1.083       .  S
C1297      C1298   1.406       .  A
C1298      H1302   1.083       .  S
C1299      C1304   1.410       .  A
C1299      C1308   1.407       .  A
C1304      C1305   1.401       .  A
C1304      H1309   1.082       .  S
C1305      C1306   1.406       .  A
C1305      H1310   1.083       .  S
C1306      C1307   1.407       .  A
C1307      C1308   1.396       .  A
C1307      H1311   1.083       .  S
C1308      H1312   1.082       .  S
C1313      C1314   1.408       .  A
C1313      C1318   1.399       .  A
C1313      H1323   1.083       .  S
C1314      C1319   1.488       .  S
C1314      C1315   1.405       .  A
C1315      C1316   1.395       .  A
C1315      H1320   1.082       .  S
C1316      C1317   1.406       .  A
C1316      H1321   1.083       .  S
C1317      C1318   1.407       .  A
C1318      H1322   1.083       .  S
C1319      C1324   1.406       .  A
C1319      C1328   1.408       .  A
C1324      C1325   1.397       .  A
C1324      H1329   1.082       .  S
C1325      C1326   1.405       .  A
C1325      H1330   1.083       .  S
C1326      C1327   1.404       .  A
C1327      C1328   1.397       .  A
C1327      H1331   1.083       .  S
C1328      H1332   1.082       .  S
C1333      C1334   1.405       .  A
C1333      C1338   1.395       .  A
C1333      H1343   1.082       .  S
C1334      C1339   1.490       .  S
C1334      C1335   1.409       .  A
C1335      C1336   1.400       .  A
C1335      H1340   1.082       .  S
C1336      C1337   1.404       .  A
C1336      H1341   1.083       .  S
C1337      C1338   1.407       .  A
C1338      H1342   1.083       .  S
C1339      C1344   1.409       .  A
C1339      C1348   1.406       .  A
C1344      C1345   1.399       .  A
C1344      H1349   1.082       .  S
C1345      C1346   1.404       .  A
C1345      H1350   1.083       .  S
C1346      C1347   1.407       .  A
C1347      C1348   1.396       .  A
C1347      H1351   1.083       .  S
C1348      H1352   1.082       .  S
C1353      C1354   1.408       .  A
C1353      C1358   1.398       .  A
C1353      H1363   1.082       .  S
C1354      C1359   1.493       .  S
C1354      C1355   1.407       .  A
C1355      C1356   1.400       .  A
C1355      H1360   1.082       .  S
C1356      C1357   1.408       .  A
C1356      H1361   1.083       .  S
C1357      C1358   1.405       .  A
C1358      H1362   1.083       .  S
C1359      C1364   1.407       .  A
C1359      C1368   1.409       .  A
C1364      C1365   1.396       .  A
C1364      H1369   1.082       .  S
C1365      C1366   1.404   1_455  A
C1365      H1370   1.083   1_455  S
C1366      C1367   1.406   1_655  A
C1367      C1368   1.401       .  A
C1367      H1371   1.083   1_455  S
C1368      H1372   1.082       .  S
C1373      C1374   1.405       .  A
C1373      C1378   1.394       .  A
C1373      H1383   1.082       .  S
C1374      C1379   1.484       .  S
C1374      C1375   1.407       .  A
C1375      C1376   1.396       .  A
C1375      H1380   1.083       .  S
C1376      C1377   1.404       .  A
C1376      H1381   1.083       .  S
C1377      C1378   1.405       .  A
C1378      H1382   1.083       .  S
C1379      C1384   1.404       .  A
C1379      C1388   1.408       .  A
C1384      C1385   1.392       .  A
C1384      H1389   1.083       .  S
C1385      C1386   1.407       .  A
C1385      H1390   1.083       .  S
C1386      C1387   1.404       .  A
C1387      C1388   1.399       .  A
C1387      H1391   1.083       .  S
C1388      H1392   1.082       .  S
C1393      C1394   1.407       .  A
C1393      C1398   1.399       .  A
C1393      H1403   1.083       .  S
C1394      C1399   1.490       .  S
C1394      C1395   1.406       .  A
C1395      C1396   1.399       .  A
C1395      H1400   1.083       .  S
C1396      C1397   1.407       .  A
C1396      H1401   1.083       .  S
C1397      C1398   1.405       .  A
C1398      H1402   1.083       .  S
C1399      C1404   1.406       .  A
C1399      C1408   1.408       .  A
C1404      C1405   1.395       .  A
C1404      H1409   1.083       .  S
C1405      C1406   1.406       .  A
C1405      H1410   1.083       .  S
C1406      C1407   1.406       .  A
C1407      C1408   1.402       .  A
C1407      H1411   1.083       .  S
C1408      H1412   1.083       .  S
C1413      C1414   1.404       .  A
C1413      C1418   1.394       .  A
C1413      H1423   1.083       .  S
C1414      C1419   1.486       .  S
C1414      C1415   1.408       .  A
C1415      C1416   1.399       .  A
C1415      H1420   1.083       .  S
C1416      C1417   1.404       .  A
C1416      H1421   1.083       .  S
C1417      C1418   1.407       .  A
C1418      H1422   1.083       .  S
C1419      C1424   1.408       .  A
C1419      C1428   1.405       .  A
C1424      C1425   1.397       .  A
C1424      H1429   1.083       .  S
C1425      C1426   1.404       .  A
C1425      H1430   1.083       .  S
C1426      C1427   1.406       .  A
C1427      C1428   1.396       .  A
C1427      H1431   1.083       .  S
C1428      H1432   1.083       .  S
C1433      C1434   1.407       .  A
C1433      C1438   1.397   1_545  A
C1433      H1443   1.082       .  S
C1434      C1439   1.486       .  S
C1434      C1435   1.405       .  A
C1435      C1436   1.396   1_545  A
C1435      H1440   1.083       .  S
C1436      C1437   1.406       .  A
C1436      H1441   1.083       .  S
C1437      C1438   1.404       .  A
C1438      H1442   1.083       .  S
C1439      C1444   1.405       .  A
C1439      C1448   1.407       .  A
C1444      C1445   1.396       .  A
C1444      H1449   1.083       .  S
C1445      C1446   1.406   1_655  A
C1445      H1450   1.083   1_655  S
C1446      C1447   1.404   1_455  A
C1447      C1448   1.396       .  A
C1447      H1451   1.083       .  S
C1448      H1452   1.082       .  S
C1453      C1454   1.409       .  A
C1453      C1458   1.397       .  A
C1453      H1463   1.082       .  S
C1454      C1459   1.491       .  S
C1454      C1455   1.406       .  A
C1455      C1456   1.398       .  A
C1455      H1460   1.082       .  S
C1456      C1457   1.407       .  A
C1456      H1461   1.083       .  S
C1457      C1458   1.402       .  A
C1458      H1462   1.083       .  S
C1459      C1464   1.404       .  A
C1459      C1468   1.410       .  A
C1464      C1465   1.392       .  A
C1464      H1469   1.082       .  S
C1465      C1466   1.407       .  A
C1465      H1470   1.083       .  S
C1466      C1467   1.405       .  A
C1467      C1468   1.402       .  A
C1467      H1471   1.083       .  S
C1468      H1472   1.082       .  S
C1473      C1474   1.407       .  A
C1473      C1478   1.397       .  A
C1473      H1483   1.083       .  S
C1474      C1479   1.487       .  S
C1474      C1475   1.405       .  A
C1475      C1476   1.399       .  A
C1475      H1480   1.083       .  S
C1476      C1477   1.408       .  A
C1476      H1481   1.083       .  S
C1477      C1478   1.404       .  A
C1478      H1482   1.083       .  S
C1479      C1484   1.406       .  A
C1479      C1488   1.407       .  A
C1484      C1485   1.396       .  A
C1484      H1489   1.083       .  S
C1485      C1486   1.405   1_655  A
C1485      H1490   1.083   1_655  S
C1486      C1487   1.406       .  A
C1487      C1488   1.399   1_455  A
C1487      H1491   1.083       .  S
C1488      H1492   1.083       .  S
C1493      C1494   1.406       .  A
C1493      C1498   1.399       .  A
C1493      H1503   1.083       .  S
C1494      C1499   1.491       .  S
C1494      C1495   1.408       .  A
C1495      C1496   1.399       .  A
C1495      H1500   1.083       .  S
C1496      C1497   1.406       .  A
C1496      H1501   1.083       .  S
C1497      C1498   1.408       .  A
C1498      H1502   1.083       .  S
C1499      C1504   1.408       .  A
C1499      C1508   1.406       .  A
C1504      C1505   1.400       .  A
C1504      H1509   1.083       .  S
C1505      C1506   1.407       .  A
C1505      H1510   1.083       .  S
C1506      C1507   1.405       .  A
C1507      C1508   1.397       .  A
C1507      H1511   1.083       .  S
C1508      H1512   1.082       .  S
