geometry optimzed in LAMMPS
_audit_creation_date              2020-12-01 
_audit_creation_method            'lammps2cif' 
_symmetry_space_group_name_H-M    'P1' 
_symmetry_Int_Tables_number       1 
_symmetry_cell_setting            triclinic 
loop_ 
_symmetry_equiv_pos_as_xyz 
  x,y,z 
_cell_length_a                    27.20699772 
_cell_length_b                    27.136828730736198 
_cell_length_c                    44.14013406270037 
_cell_angle_alpha                 90.80902169311193 
_cell_angle_beta                  89.61848673313023 
_cell_angle_gamma                 90.54209410610204 
loop_ 
_atom_site_label 
_atom_site_type_symbol 
_atom_site_fract_x 
_atom_site_fract_y 
_atom_site_fract_z 
_atom_site_charge 
O1          O  0.44109877  0.78370225  0.09983333    -0.86200
O2          O  0.48271804  0.85883202  0.07242986    -0.83300
C3          C  0.51315768  0.88606652  0.05965339     0.97300
O4          O  0.55239735  0.86715150  0.04860045    -0.83300
O5          O  0.61283809  0.79955682  0.08566156    -0.85900
C6          C  0.62452255  0.75933410  0.09813690     1.01800
O7          O  0.59574495  0.72283778  0.09604728    -0.78700
O8          O  0.50844835  0.75587496  0.12072629    -0.78900
C9          C  0.46948148  0.78065436  0.12241326     1.01700
O10         O  0.43330426  0.73343032  0.04149474    -0.86200
O11         O  0.47300300  0.81075883  0.01256363    -0.83300
C12         C  0.49782572  0.78951728  0.49387890     0.97300
O13         O  0.54017238  0.78064635  0.50337442    -0.83300
O14         O  0.60359298  0.72725501  0.03656015    -0.85900
C15         C  0.58345845  0.68462351  0.03491700     1.01700
O16         O  0.54417097  0.67508033  0.04933191    -0.78700
O17         O  0.45503968  0.69096115  0.08041704    -0.78900
C18         C  0.42727031  0.69687436  0.05801745     1.01700
Cr19       Cr  0.46229378  0.79477069  0.05684353     1.93700
Cr20       Cr  0.57532513  0.79460123  0.04601694     1.93200
Cr21       Cr  0.52511510  0.71542946  0.08498041     1.39100
O22         O  0.52104265  0.76859714  0.06227076    -1.24000
O23         O  0.77885263  0.44988238  0.16808048    -0.86200
O24         O  0.84883757  0.48543060  0.20649052    -0.83300
C25         C  0.87523352  0.52099706  0.19848937     0.97300
O26         O  0.85652987  0.56420353  0.19734882    -0.83300
O27         O  0.78254907  0.61988264  0.16922291    -0.85900
C28         C  0.74128893  0.63032592  0.15845677     1.01800
O29         O  0.70594740  0.60156948  0.16332122    -0.78700
O30         O  0.74628181  0.51241288  0.14287538    -0.78900
C31         C  0.77361195  0.47497038  0.14376974     1.01700
O32         O  0.71203055  0.45187993  0.22391967    -0.86200
O33         O  0.78211570  0.49246399  0.25615488    -0.83300
C34         C  0.79204382  0.53336924  0.26878119     0.97300
O35         O  0.79849793  0.57151242  0.25329248    -0.83300
O36         O  0.71913847  0.61307224  0.22386434    -0.85900
C37         C  0.67571941  0.59317899  0.22521551     1.01700
O38         O  0.66485464  0.55296304  0.21150456    -0.78700
O39         O  0.68177550  0.45991821  0.18004365    -0.78900
C40         C  0.68388283  0.43590537  0.20403602     1.01700
Cr41       Cr  0.77847634  0.47396659  0.21240513     1.93700
Cr42       Cr  0.78706805  0.58762420  0.21002767     1.93200
Cr43       Cr  0.70445629  0.53144442  0.17659076     1.39100
O44         O  0.75780786  0.53144891  0.19991511    -1.24000
O45         O  0.50414105  0.24549724  0.35391701    -0.86200
O46         O  0.59274338  0.27332054  0.32648954    -0.83300
C47         C  0.62225705  0.24212506  0.33525036     0.97300
O48         O  0.61217623  0.19703411  0.33041429    -0.83300
O49         O  0.55366568  0.11227374  0.31216383    -0.85900
C50         C  0.51103309  0.09237260  0.31084333     1.01800
O51         O  0.47442298  0.11714319  0.30341921    -0.78700
O52         O  0.44170348  0.19886101  0.33686790    -0.78900
C53         C  0.46601356  0.21900931  0.35869594     1.01700
O54         O  0.45733855  0.29738143  0.31031916    -0.86200
O55         O  0.54602658  0.29380064  0.27371565    -0.83300
C56         C  0.58425642  0.27632033  0.26048345     0.97300
O57         O  0.60273505  0.23542525  0.26882957    -0.83300
O58         O  0.55290218  0.15119985  0.25194424    -0.85900
C59         C  0.51471233  0.15885806  0.23674684     1.01700
O60         O  0.47546709  0.17309394  0.24939430    -0.78700
O61         O  0.43045555  0.24610891  0.27692742    -0.78900
C62         C  0.42684371  0.28638348  0.29052323     1.01700
Cr63       Cr  0.52441764  0.27074336  0.31436692     1.93700
Cr64       Cr  0.57537665  0.17662584  0.29200552     1.93200
Cr65       Cr  0.46063370  0.18573065  0.29276980     1.39100
O66         O  0.52017328  0.20985848  0.29991471    -1.24000
O67         O  0.72721544  0.50062783  0.40452198    -0.86200
O68         O  0.73441266  0.40060529  0.40114523    -0.83300
C69         C  0.75348989  0.35908909  0.40502906     0.97300
O70         O  0.77936688  0.35175623  0.42824167    -0.83300
O71         O  0.86112635  0.41875946  0.44128001    -0.85900
C72         C  0.88308993  0.45888582  0.44878255     1.01800
O73         O  0.86073375  0.48942722  0.46510892    -0.78700
O74         O  0.80234401  0.52059437  0.41842866    -0.78900
C75         C  0.76992295  0.51705772  0.39817185     1.01700
O76         O  0.67547655  0.48774395  0.46308778    -0.86200
O77         O  0.68113232  0.38972085  0.45711665    -0.83300
C78         C  0.69624589  0.36869681  0.48063301     0.97300
O79         O  0.74144449  0.36993522  0.48735612    -0.83300
O80         O  0.82876633  0.42491552  0.00203698    -0.85900
C81         C  0.81029503  0.45846666  0.01878876     1.01700
O82         O  0.78981516  0.49562792  0.00711742    -0.78700
O83         O  0.72951788  0.54659487  0.46203977    -0.78900
C84         C  0.68793804  0.53091609  0.46969180     1.01700
Cr85       Cr  0.70945543  0.44530010  0.43305397     1.93700
Cr86       Cr  0.79899501  0.39580422  0.46372630     1.93200
Cr87       Cr  0.79128705  0.50828462  0.46209886     1.39100
O88         O  0.76624054  0.44912225  0.45287477    -1.24000
O89         O  0.50757215  0.15920601  0.08766545    -0.86200
O90         O  0.48078048  0.11737285  0.03104641    -0.83300
C91         C  0.45326208  0.09285801  0.04761822     0.97300
O92         O  0.41544573  0.11479188  0.05785570    -0.83300
O93         O  0.35231446  0.19382286  0.07691768    -0.85900
C94         C  0.35405115  0.22800126  0.09682356     1.01800
O95         O  0.39234865  0.25406203  0.10023836    -0.78700
O96         O  0.49207534  0.23464429  0.10626192    -0.78900
C97         C  0.50323712  0.18927986  0.10978956     1.01700
O98         O  0.55313843  0.23471741  0.05728759    -0.86200
O99         O  0.50155569  0.20454734  0.00330295    -0.83300
C100        C  0.45611996  0.17899591  0.48635717     0.97300
O101        O  0.41771148  0.15902879  0.49808566    -0.83300
O102        O  0.36839695  0.24276190  0.02174743    -0.85900
C103        C  0.37830265  0.28809886  0.02601842     1.01700
O104        O  0.41027871  0.30186927  0.04492222    -0.78700
O105        O  0.50583079  0.29425160  0.04942902    -0.78900
C106        C  0.54835279  0.27765778  0.04855801     1.01700
Cr107      Cr  0.50633852  0.18143204  0.04544323     1.93700
Cr108      Cr  0.39514240  0.18146868  0.04017093     1.93200
Cr109      Cr  0.45081392  0.26653222  0.07404995     1.39100
O110        O  0.44937837  0.21045347  0.05361001    -1.24000
O111        O  0.15474976  0.50267390  0.15389960    -0.86200
O112        O  0.10947576  0.49121690  0.21184068    -0.83300
C113        C  0.08353807  0.46143552  0.19753948     0.97300
O114        O  0.10463151  0.42119471  0.19002456    -0.83300
O115        O  0.18400916  0.35207238  0.17779398    -0.85900
C116        C  0.22094733  0.34835641  0.16015785     1.01800
O117        O  0.24968659  0.38447969  0.15615761    -0.78700
O118        O  0.23078952  0.48212551  0.13918976    -0.78900
C119        C  0.18597977  0.49279288  0.13306418     1.01700
O120        O  0.22841346  0.55497285  0.18153483    -0.86200
O121        O  0.19533937  0.51679907  0.23937877    -0.83300
C122        C  0.18047951  0.48358190  0.25762278     0.97300
O123        O  0.15831681  0.44467611  0.24804751    -0.83300
O124        O  0.23049395  0.38188754  0.23381844    -0.85900
C125        C  0.27588976  0.39298985  0.23217674     1.01700
O126        O  0.29230537  0.41783521  0.21035205    -0.78700
O127        O  0.28680580  0.51067442  0.19631278    -0.78900
C128        C  0.26994560  0.55269683  0.19277314     1.01700
Cr129      Cr  0.17428353  0.51204119  0.19647012     1.93700
Cr130      Cr  0.17085724  0.40348990  0.21072921     1.93200
Cr131      Cr  0.26009357  0.44969032  0.17620532     1.39100
O132        O  0.20230313  0.45353775  0.19410101    -1.24000
O133        O  0.23870216  0.52172857  0.39441551    -0.86200
O134        O  0.26058909  0.60451991  0.42622478    -0.83300
C135        C  0.22388254  0.62987774  0.41880533     0.97300
O136        O  0.18113662  0.61765693  0.42772362    -0.83300
O137        O  0.10494780  0.55846938  0.45831073    -0.85900
C138        C  0.08827649  0.52303921  0.44190022     1.01800
O139        O  0.11783232  0.49731149  0.42727361    -0.78700
O140        O  0.19874005  0.45356858  0.40579037    -0.78900
C141        C  0.21543135  0.48376900  0.38618931     1.01700
O142        O  0.28328273  0.46082642  0.43921391    -0.86200
O143        O  0.28936573  0.54348305  0.47535430    -0.83300
C144        C  0.28043354  0.58310623  0.48912304     0.97300
O145        O  0.24265640  0.60790527  0.48177707    -0.83300
O146        O  0.16837294  0.54882403  0.00561403    -0.85900
C147        C  0.14779248  0.50760213  0.00865094     1.01700
O148        O  0.13943511  0.47972415  0.98584954    -0.78700
O149        O  0.22552872  0.43716806  0.46999370    -0.78900
C150        C  0.26821379  0.43289104  0.45999784     1.01700
Cr151      Cr  0.26395241  0.53217036  0.43481006     1.93700
Cr152      Cr  0.17699712  0.58022709  0.46637687     1.93200
Cr153      Cr  0.17337569  0.47027810  0.44835711     1.39100
O154        O  0.20415589  0.52745882  0.44972051    -1.24000
O155        O  0.44284296  0.73082067  0.35556162    -0.86200
O156        O  0.35639179  0.71167691  0.32710101    -0.83300
C157        C  0.33205057  0.74611246  0.33926207     0.97300
O158        O  0.34348876  0.79055294  0.33359317    -0.83300
O159        O  0.39702335  0.87357864  0.30503074    -0.85900
C160        C  0.43530483  0.89076373  0.31806684     1.01800
O161        O  0.46653168  0.86131735  0.32759809    -0.78700
O162        O  0.50777713  0.77527146  0.34390336    -0.78900
C163        C  0.47973316  0.75564299  0.36381851     1.01700
O164        O  0.49670447  0.69124232  0.30550453    -0.86200
O165        O  0.40936506  0.69078702  0.27254723    -0.83300
C166        C  0.36909203  0.70443612  0.26140577     0.97300
O167        O  0.34655810  0.74058567  0.27386251    -0.83300
O168        O  0.40098639  0.81311321  0.25328679    -0.85900
C169        C  0.44120849  0.83003822  0.24426908     1.01700
O170        O  0.47677860  0.83663703  0.26262772    -0.78700
O171        O  0.52082545  0.75289581  0.27861679    -0.78900
C172        C  0.52522123  0.70880146  0.28579624     1.01700
Cr173      Cr  0.42700135  0.71088695  0.31428665     1.93700
Cr174      Cr  0.37593422  0.80275485  0.29321537     1.93200
Cr175      Cr  0.48858724  0.80411252  0.30333134     1.39100
O176        O  0.43083970  0.77331891  0.30365829    -1.24000
C177        C  0.22591161  0.66896929  0.36844692    -0.02700
C178        C  0.23379838  0.67332122  0.39971898     0.07000
C179        C  0.26471671  0.71151677  0.41086918    -0.02800
C180        C  0.29232373  0.74104222  0.39068578    -0.02800
C181        C  0.29027123  0.73134254  0.35927683     0.07100
C182        C  0.25506537  0.69666268  0.34828640    -0.03000
Br183      Br  0.25000551  0.68232038  0.30570584    -0.01600
Br184      Br  0.17914386  0.62069982  0.35332235    -0.01600
Br185      Br  0.33764723  0.79007324  0.40621834    -0.01600
Br186      Br  0.27193970  0.72051490  0.45399769    -0.01600
C187        C  0.37297931  0.63732921  0.22051078    -0.02700
C188        C  0.34598355  0.67427964  0.23627940     0.07000
C189        C  0.29540978  0.67847450  0.22955334    -0.02800
C190        C  0.27013919  0.63890033  0.21547680    -0.02800
C191        C  0.29641066  0.59787714  0.20375418     0.07100
C192        C  0.34827951  0.59974448  0.20403658    -0.03000
Br193      Br  0.38586176  0.55213157  0.18079622    -0.01600
Br194      Br  0.44384714  0.63990465  0.21858164    -0.01600
Br195      Br  0.19904279  0.64056060  0.21541376    -0.01600
Br196      Br  0.26052995  0.73939121  0.23650077    -0.01600
C197        C  0.16059516  0.46599926  0.34157958    -0.02700
C198        C  0.20772503  0.47736846  0.35314251     0.07000
C199        C  0.24525843  0.49341583  0.33299853    -0.02800
C200        C  0.23528596  0.49970554  0.30209728    -0.02800
C201        C  0.18831520  0.48803396  0.29063749     0.07100
C202        C  0.15084989  0.47199623  0.31060858    -0.03000
Br203      Br  0.08456547  0.46150134  0.29591107    -0.01600
Br204      Br  0.10791840  0.44379949  0.36757200    -0.01600
Br205      Br  0.28671827  0.52414391  0.27582999    -0.01600
Br206      Br  0.31160184  0.50555879  0.34728697    -0.01600
C207        C  0.13605604  0.52888180  0.09100485    -0.02700
C208        C  0.16946418  0.49300705  0.10100211     0.07000
C209        C  0.18404861  0.45511882  0.08055197    -0.02800
C210        C  0.16490390  0.45269925  0.05109437    -0.02800
C211        C  0.13798381  0.49231610  0.04007271     0.07100
C212        C  0.12031411  0.52821826  0.06068429    -0.03000
Br213      Br  0.07585823  0.57770171  0.04649176    -0.01600
Br214      Br  0.11769515  0.58373344  0.11687220    -0.01600
Br215      Br  0.17664165  0.39563228  0.02563470    -0.01600
Br216      Br  0.23464648  0.40947384  0.09053900    -0.01600
C217        C  0.30744160  0.34997377  0.45847433    -0.02700
C218        C  0.29940497  0.39522791  0.47357891     0.07000
C219        C  0.31446043  0.40886432  0.00851709    -0.02800
C220        C  0.34054863  0.37250861  0.02389425    -0.02800
C221        C  0.35156880  0.32689998  0.00921588     0.07100
C222        C  0.32956172  0.31068524  0.47380603    -0.03000
Br223      Br  0.33963723  0.24908415  0.45257001    -0.01600
Br224      Br  0.28545976  0.34133299  0.41725484    -0.01600
Br225      Br  0.35872431  0.38617151  0.06562378    -0.01600
Br226      Br  0.29508786  0.46829683  0.02982003    -0.01600
C227        C  0.31170575  0.24876115  0.14665864    -0.02700
C228        C  0.30917659  0.24236547  0.11491986     0.07000
C229        C  0.26625535  0.25898791  0.10008940    -0.02800
C230        C  0.23038407  0.28701509  0.11619505    -0.02800
C231        C  0.23748492  0.29973321  0.14693018     0.07100
C232        C  0.27480389  0.27504806  0.16250385    -0.03000
Br233      Br  0.27434492  0.27648421  0.20594894    -0.01600
Br234      Br  0.36726678  0.22475067  0.16858667    -0.01600
Br235      Br  0.16936870  0.30404056  0.09733682    -0.01600
Br236      Br  0.25877781  0.24879293  0.05705891    -0.01600
C237        C  0.97379924  0.43939570  0.44814629    -0.02700
C238        C  0.93562312  0.47178867  0.44114288     0.07000
C239        C  0.94852038  0.52094196  0.43281342    -0.02800
C240        C  0.99770755  0.53824123  0.43408940    -0.02800
C241        C  0.03553854  0.50630157  0.44200593     0.07100
C242        C  0.02330059  0.45606634  0.44800258    -0.03000
Br243      Br  0.07348928  0.40905239  0.45760607    -0.01600
Br244      Br  0.95812086  0.37284652  0.46015035    -0.01600
Br245      Br  0.01376822  0.60558143  0.42400791    -0.01600
Br246      Br  0.90000759  0.56540461  0.41792066    -0.01600
C247        C  0.58353767  0.35412366  0.02394605    -0.02700
C248        C  0.59057025  0.30576102  0.03470453     0.07000
C249        C  0.62890069  0.26864206  0.52600572    -0.02800
C250        C  0.66699713  0.29452132  0.51085999    -0.02800
C251        C  0.65952353  0.34313076  0.50076545     0.07100
C252        C  0.61771208  0.37540432  0.00373296    -0.03000
Br253      Br  0.60017775  0.43694444  0.98552441    -0.01600
Br254      Br  0.52913724  0.39422228  0.03826957    -0.01600
Br255      Br  0.72888490  0.26213100  0.50400570    -0.01600
Br256      Br  0.63784470  0.19901276  0.53292930    -0.01600
C257        C  0.45608157  0.96885083  0.29009974    -0.02700
C258        C  0.44926223  0.94495235  0.31810586     0.07000
C259        C  0.46786245  0.96918331  0.34445172    -0.02800
C260        C  0.49191846  0.01611906  0.34260977    -0.02800
C261        C  0.50091383  0.03802544  0.31421917     0.07100
C262        C  0.48509489  0.01211003  0.28805931    -0.03000
Br263      Br  0.50598367  0.03462201  0.24876955    -0.01600
Br264      Br  0.42309818  0.94554859  0.25419171    -0.01600
Br265      Br  0.51366034  0.05009966  0.37869890    -0.01600
Br266      Br  0.45612915  0.94003052  0.38337545    -0.01600
C267        C  0.39862884  0.36626620  0.26981756    -0.02700
C268        C  0.38727106  0.32062161  0.28276412     0.07000
C269        C  0.33779881  0.30727009  0.28741393    -0.02800
C270        C  0.30007136  0.33557512  0.27478877    -0.02800
C271        C  0.31229194  0.37440563  0.25478225     0.07100
C272        C  0.36164656  0.39264084  0.25512428    -0.03000
Br273      Br  0.38035783  0.45461656  0.23715292    -0.01600
Br274      Br  0.46472935  0.39273161  0.27254345    -0.01600
Br275      Br  0.23305297  0.32251619  0.28706575    -0.01600
Br276      Br  0.32224072  0.25148532  0.31247098    -0.01600
C277        C  0.68814113  0.24357702  0.37650526    -0.02700
C278        C  0.66833785  0.26251185  0.34957698     0.07000
C279        C  0.68888101  0.30734307  0.33830885    -0.02800
C280        C  0.72681418  0.33207976  0.35369840    -0.02800
C281        C  0.73965291  0.31845465  0.38306372     0.07100
C282        C  0.72381781  0.27143007  0.39307506    -0.03000
Br283      Br  0.75054129  0.24489655  0.42931286    -0.01600
Br284      Br  0.66081785  0.18421837  0.39352393    -0.01600
Br285      Br  0.75973567  0.38694692  0.33484399    -0.01600
Br286      Br  0.66120614  0.34276859  0.30492930    -0.01600
C287        C  0.47488875  0.13833750  0.18671798    -0.02700
C288        C  0.51673432  0.15426414  0.20314701     0.07000
C289        C  0.55820875  0.17253044  0.18691122    -0.02800
C290        C  0.55387936  0.18413120  0.15614480    -0.02800
C291        C  0.51081705  0.17152906  0.14057889     0.07100
C292        C  0.47333086  0.14461791  0.15516699    -0.03000
Br293      Br  0.41945420  0.11735782  0.13197942    -0.01600
Br294      Br  0.41928880  0.10818331  0.20693225    -0.01600
Br295      Br  0.60638322  0.21829686  0.13520026    -0.01600
Br296      Br  0.62142807  0.18215789  0.20550399    -0.01600
C297        C  0.43597107  0.15424141  0.43239649    -0.02700
C298        C  0.45606387  0.18894753  0.45335610     0.07000
C299        C  0.46940214  0.23635561  0.44313488    -0.02800
C300        C  0.46449645  0.24803690  0.41244879    -0.02800
C301        C  0.45178946  0.21124022  0.39093302     0.07100
C302        C  0.43348960  0.16550082  0.40127953    -0.03000
Br303      Br  0.40233430  0.11913354  0.37369049    -0.01600
Br304      Br  0.41387613  0.09005098  0.44564833    -0.01600
Br305      Br  0.46897949  0.31620209  0.40034644    -0.01600
Br306      Br  0.49264998  0.28699326  0.47082966    -0.01600
C307        C  0.94257841  0.45868707  0.18410208    -0.02700
C308        C  0.92892154  0.50845690  0.19142679     0.07000
C309        C  0.96746364  0.54331158  0.19424318    -0.02800
C310        C  0.01742293  0.52813170  0.19356306    -0.02800
C311        C  0.03062335  0.47698867  0.19137916     0.07100
C312        C  0.99237890  0.44299745  0.18511575    -0.03000
Br313      Br  0.00740799  0.37432356  0.17827188    -0.01600
Br314      Br  0.89404055  0.41106673  0.17015980    -0.01600
Br315      Br  0.06701452  0.57994474  0.19444063    -0.01600
Br316      Br  0.95267592  0.61254969  0.19898856    -0.01600
C317        C  0.58324775  0.34075010  0.21966231    -0.02700
C318        C  0.61019165  0.30696884  0.23694202     0.07000
C319        C  0.66230328  0.30782852  0.23403412    -0.02800
C320        C  0.68588745  0.34814906  0.21999845    -0.02800
C321        C  0.65823147  0.38788431  0.20908609     0.07100
C322        C  0.60681618  0.38232672  0.20686735    -0.03000
Br323      Br  0.56827069  0.43271986  0.18841428    -0.01600
Br324      Br  0.51505997  0.32703008  0.21112991    -0.01600
Br325      Br  0.75684275  0.34978636  0.21621192    -0.01600
Br326      Br  0.70319576  0.25707428  0.25080954    -0.01600
C327        C  0.76957883  0.57338004  0.31929176    -0.02700
C328        C  0.79502848  0.53653682  0.30254391     0.07000
C329        C  0.82115155  0.50070176  0.31853139    -0.02800
C330        C  0.81637160  0.49766710  0.35029421    -0.02800
C331        C  0.78309337  0.52840251  0.36617031     0.07100
C332        C  0.76171597  0.56790778  0.35079178    -0.03000
Br333      Br  0.72335931  0.61552786  0.37306993    -0.01600
Br334      Br  0.74661725  0.63212650  0.29983677    -0.01600
Br335      Br  0.85459594  0.45008788  0.37173144    -0.01600
Br336      Br  0.86549272  0.45716486  0.29702196    -0.01600
C337        C  0.82651033  0.49804212  0.10026238    -0.02700
C338        C  0.79833051  0.46157518  0.11512171     0.07000
C339        C  0.78540684  0.41809020  0.09947716    -0.02800
C340        C  0.79500391  0.41416460  0.06813855    -0.02800
C341        C  0.81416485  0.45515278  0.05221659     0.07100
C342        C  0.83397393  0.49507736  0.06879391    -0.03000
Br343      Br  0.87294468  0.54446666  0.04840975    -0.01600
Br344      Br  0.85342366  0.55304965  0.12287681    -0.01600
Br345      Br  0.78178516  0.35263843  0.04795776    -0.01600
Br346      Br  0.75029931  0.36632308  0.12030041    -0.01600
C347        C  0.62279600  0.61047793  0.27089010    -0.02700
C348        C  0.63541922  0.62001233  0.24059889     0.07000
C349        C  0.60781865  0.65416679  0.22429165    -0.02800
C350        C  0.57307392  0.68400136  0.23917236    -0.02800
C351        C  0.56323421  0.67783781  0.27049165     0.07100
C352        C  0.58853096  0.64069327  0.28627975    -0.03000
Br353      Br  0.58046196  0.63338057  0.32945489    -0.01600
Br354      Br  0.64772163  0.55219448  0.28984451    -0.01600
Br355      Br  0.53880354  0.73223102  0.21545797    -0.01600
Br356      Br  0.61200499  0.65537276  0.18070025    -0.01600
C357        C  0.53391982  0.97806316  0.05780394    -0.02700
C358        C  0.49894353  0.93956580  0.05703752     0.07000
C359        C  0.44816415  0.95232651  0.05454410    -0.02800
C360        C  0.43299238  0.00212843  0.05484900    -0.02800
C361        C  0.46802864  0.04052631  0.05402304     0.07100
C362        C  0.51894715  0.02781148  0.05552696    -0.03000
Br363      Br  0.57013933  0.07784430  0.05514913    -0.01600
Br364      Br  0.60270256  0.96300817  0.06251650    -0.01600
Br365      Br  0.36368698  0.01723579  0.05510529    -0.01600
Br366      Br  0.39802994  0.90253239  0.04685829    -0.01600
C367        C  0.36444724  0.59133385  0.01866979    -0.02700
C368        C  0.31616109  0.60140004  0.51223047     0.07000
C369        C  0.30145770  0.64824481  0.03713163    -0.02800
C370        C  0.33829657  0.67699639  0.05118911    -0.02800
C371        C  0.38758116  0.66165509  0.05035678     0.07100
C372        C  0.39954161  0.61655730  0.03645501    -0.03000
Br373      Br  0.46560350  0.59168442  0.03949695    -0.01600
Br374      Br  0.38887892  0.53760203  0.99345271    -0.02400
Br375      Br  0.32152651  0.73932592  0.06975097    -0.01600
Br376      Br  0.23260029  0.64691585  0.54345605    -0.01600
C377        C  0.62827247  0.59939669  0.46999915    -0.02700
C378        C  0.65422788  0.56388004  0.48607681     0.07000
C379        C  0.65352357  0.56702955  0.01753839    -0.02800
C380        C  0.62488940  0.60246901  0.03305294    -0.02800
C381        C  0.60855589  0.64465907  0.01779669     0.07100
C382        C  0.60409401  0.63749711  0.48571109    -0.03000
Br383      Br  0.57221994  0.68806898  0.46328801    -0.01600
Br384      Br  0.62431895  0.59439761  0.42648986    -0.01600
Br385      Br  0.61088364  0.59456751  0.07565609    -0.01600
Br386      Br  0.68006578  0.51211557  0.03914417    -0.01600
C387        C  0.71220002  0.71838719  0.15798621    -0.02700
C388        C  0.73120641  0.67715533  0.14194057     0.07000
C389        C  0.72884146  0.67737964  0.11006846    -0.02800
C390        C  0.70390146  0.71544638  0.09513979    -0.02800
C391        C  0.67395335  0.74878843  0.11156349     0.07100
C392        C  0.68172918  0.75265326  0.14312383    -0.03000
Br393      Br  0.64999651  0.80375400  0.16616588    -0.01600
Br394      Br  0.72466140  0.72562128  0.20075152    -0.01600
Br395      Br  0.71019422  0.72202028  0.05201588    -0.01600
Br396      Br  0.75544625  0.62341872  0.08676702    -0.01600
C397        C  0.45783624  0.74834774  0.44922907    -0.02700
C398        C  0.48948275  0.78533910  0.46069043     0.07000
C399        C  0.52001334  0.81144647  0.44043105    -0.02800
C400        C  0.51850991  0.80131040  0.40893544    -0.02800
C401        C  0.48757739  0.76302809  0.39729583     0.07100
C402        C  0.45874984  0.73521448  0.41828896    -0.03000
Br403      Br  0.42207004  0.67605966  0.40653921    -0.01600
Br404      Br  0.41362776  0.71355802  0.47586525    -0.01600
Br405      Br  0.55973083  0.84102200  0.38282223    -0.01600
Br406      Br  0.56300155  0.86274511  0.45606669    -0.01600
C407        C  0.48933383  0.84890034  0.19604207    -0.02700
C408        C  0.44473874  0.83799352  0.21099841     0.07000
C409        C  0.40360796  0.82414832  0.19296478    -0.02800
C410        C  0.41123185  0.80292569  0.16434951    -0.02800
C411        C  0.45790012  0.80656799  0.15095258     0.07100
C412        C  0.49429866  0.83600472  0.16516477    -0.03000
Br413      Br  0.54738352  0.86261066  0.14129511    -0.01600
Br414      Br  0.54231802  0.88245220  0.21668636    -0.01600
Br415      Br  0.35886249  0.76541976  0.14566136    -0.01600
Br416      Br  0.33676331  0.83674602  0.20591531    -0.01600
O417        O  0.43532699  0.77349658  0.59992997    -0.86200
O418        O  0.47140488  0.84996819  0.57041150    -0.83300
C419        C  0.50221616  0.87725919  0.55790001     0.97300
O420        O  0.54207008  0.85922802  0.54710377    -0.83300
O421        O  0.60558856  0.79479806  0.58364237    -0.85900
C422        C  0.61828854  0.75554459  0.59687844     1.01800
O423        O  0.59131061  0.71781850  0.59489867    -0.78700
O424        O  0.50422328  0.74825462  0.62020801    -0.78900
C425        C  0.46447180  0.77153585  0.62225837     1.01700
O426        O  0.42965621  0.72114169  0.54164371    -0.86200
O427        O  0.46311267  0.79967457  0.51209807    -0.83300
C428        C  0.50830609  0.79906838  0.99504791     0.97300
O429        O  0.54978530  0.78903612  0.00512884    -0.83300
O430        O  0.59788066  0.72140455  0.53525862    -0.85900
C431        C  0.57865637  0.67835552  0.53433487     1.01700
O432        O  0.54016367  0.66799945  0.54921577    -0.78700
O433        O  0.45171680  0.68056194  0.58102628    -0.78900
C434        C  0.42458495  0.68474773  0.55821575     1.01700
Cr435      Cr  0.45468425  0.78412896  0.55641596     1.93700
Cr436      Cr  0.56731359  0.78777414  0.54431810     1.93200
Cr437      Cr  0.52096569  0.70795814  0.58461467     1.39100
O438        O  0.51457476  0.76065149  0.56160627    -1.24000
O439        O  0.78222187  0.45839771  0.67012810    -0.86200
O440        O  0.84917551  0.49566468  0.71082346    -0.83300
C441        C  0.87410701  0.53026812  0.70017829     0.97300
O442        O  0.85452291  0.57282903  0.69778591    -0.83300
O443        O  0.77904702  0.62615508  0.67180751    -0.85900
C444        C  0.73739884  0.63626539  0.66183895     1.01800
O445        O  0.70262201  0.60749014  0.66748423    -0.78700
O446        O  0.74842828  0.52086985  0.64516921    -0.78900
C447        C  0.77589312  0.48335779  0.64576377     1.01700
O448        O  0.71357146  0.45512136  0.72482849    -0.86200
O449        O  0.78051811  0.49953840  0.75881283    -0.83300
C450        C  0.79332436  0.54013623  0.77094895     0.97300
O451        O  0.80045377  0.57770382  0.75509493    -0.83300
O452        O  0.71632965  0.61586490  0.72800271    -0.85900
C453        C  0.67348474  0.59410103  0.72890353     1.01700
O454        O  0.66415990  0.55461239  0.71398008    -0.78700
O455        O  0.68508106  0.46508301  0.68051842    -0.78900
C456        C  0.68572455  0.44074581  0.70431418     1.01700
Cr457      Cr  0.77934682  0.48097647  0.71491039     1.93700
Cr458      Cr  0.78540308  0.59410383  0.71243114     1.93200
Cr459      Cr  0.70484783  0.53685385  0.67884985     1.39100
O460        O  0.75741025  0.53764868  0.70250534    -1.24000
O461        O  0.50513801  0.25566767  0.85323342    -0.86200
O462        O  0.59077011  0.28486922  0.82313542    -0.83300
C463        C  0.62090469  0.25443003  0.83250777     0.97300
O464        O  0.61087924  0.20904802  0.82877979    -0.83300
O465        O  0.55575329  0.12157967  0.81179195    -0.85900
C466        C  0.51385049  0.10019693  0.81253426     1.01800
O467        O  0.47544997  0.12363181  0.80676039    -0.78700
O468        O  0.44236994  0.20750909  0.83849130    -0.78900
C469        C  0.46813072  0.22862852  0.85938343     1.01700
O470        O  0.45090978  0.30229135  0.81032771    -0.86200
O471        O  0.53871051  0.30176897  0.77165272    -0.83300
C472        C  0.57752129  0.28537179  0.75850060     0.97300
O473        O  0.59717621  0.24535736  0.76707075    -0.83300
O474        O  0.55016090  0.15954528  0.75154893    -0.85900
C475        C  0.51031892  0.16287739  0.73732468     1.01700
O476        O  0.47099279  0.17479364  0.75083800    -0.78700
O477        O  0.42708860  0.24979388  0.77708708    -0.78900
C478        C  0.41934698  0.28861414  0.79159532     1.01700
Cr479      Cr  0.52080306  0.27978268  0.81294701     1.93700
Cr480      Cr  0.57354804  0.18637258  0.79102729     1.93200
Cr481      Cr  0.45889751  0.19117357  0.79429406     1.39100
O482        O  0.51782060  0.21788789  0.79956762    -1.24000
O483        O  0.73846206  0.51268182  0.90628408    -0.86200
O484        O  0.74264527  0.41300751  0.89900153    -0.83300
C485        C  0.75763694  0.36963637  0.90196045     0.97300
O486        O  0.78210670  0.35885483  0.92521098    -0.83300
O487        O  0.86728578  0.42208796  0.93942622    -0.85900
C488        C  0.89030689  0.46087014  0.94846313     1.01800
O489        O  0.86920866  0.48816172  0.96739255    -0.78700
O490        O  0.81467952  0.52622539  0.92043394    -0.78900
C491        C  0.78223923  0.52608067  0.90012937     1.01700
O492        O  0.68471432  0.49578103  0.96355313    -0.86200
O493        O  0.68756971  0.39782025  0.95348988    -0.83300
C494        C  0.70069508  0.37596286  0.97714539     0.97300
O495        O  0.74553032  0.37558692  0.98483324    -0.83300
O496        O  0.82211855  0.42534214  0.50344182    -0.85900
C497        C  0.80333279  0.46009412  0.51908949     1.01700
O498        O  0.78240605  0.49578451  0.50616714    -0.78700
O499        O  0.74060091  0.55301174  0.96403516    -0.78900
C500        C  0.69793473  0.53857623  0.97065593     1.01700
Cr501      Cr  0.71792920  0.45509456  0.93217802     1.93700
Cr502      Cr  0.80437400  0.39950055  0.96167060     1.93200
Cr503      Cr  0.80114865  0.51173669  0.96377654     1.39100
O504        O  0.77396934  0.45480536  0.95252839    -1.24000
O505        O  0.49389110  0.15289686  0.58849462    -0.86200
O506        O  0.47157882  0.10670908  0.53185651    -0.83300
C507        C  0.44214118  0.08288922  0.54748337     0.97300
O508        O  0.40393984  0.10532276  0.55682065    -0.83300
O509        O  0.34146716  0.18622118  0.57533304    -0.85900
C510        C  0.34267273  0.22362397  0.59303313     1.01800
O511        O  0.38010144  0.25151713  0.59396250    -0.78700
O512        O  0.47893465  0.22986738  0.60444443    -0.78900
C513        C  0.49010700  0.18491013  0.60959959     1.01700
O514        O  0.54409103  0.22364001  0.55704363    -0.86200
O515        O  0.49320146  0.19131660  0.50255443    -0.83300
C516        C  0.46461004  0.19127474  0.98739990     0.97300
O517        O  0.42723306  0.16989800  0.99932641    -0.83300
O518        O  0.35739072  0.23287914  0.51919620    -0.85900
C519        C  0.37028663  0.27790458  0.52094994     1.01700
O520        O  0.40492587  0.29208363  0.53775187    -0.78700
O521        O  0.49891328  0.28321473  0.54568423    -0.78900
C522        C  0.54105679  0.26587675  0.54698326     1.01700
Cr523      Cr  0.49585228  0.17129732  0.54548734     1.93700
Cr524      Cr  0.38450787  0.17210916  0.53851091     1.93200
Cr525      Cr  0.44121787  0.25937967  0.56959644     1.39100
O526        O  0.43904387  0.20140027  0.55161568    -1.24000
O527        O  0.16271659  0.50865966  0.65497513    -0.86200
O528        O  0.10686683  0.50089600  0.70923889    -0.83300
C529        C  0.08103845  0.47098795  0.69478293     0.97300
O530        O  0.10123344  0.43028718  0.68724391    -0.83300
O531        O  0.17837128  0.35542067  0.67744687    -0.85900
C532        C  0.21939295  0.35001971  0.66335978     1.01800
O533        O  0.25079356  0.38442710  0.66333865    -0.78700
O534        O  0.23932075  0.48217477  0.64526846    -0.78900
C535        C  0.19677987  0.49674325  0.63638241     1.01700
O536        O  0.23434111  0.55508986  0.68671426    -0.86200
O537        O  0.19102950  0.51679194  0.74166773    -0.83300
C538        C  0.17182703  0.48502971  0.75926338     0.97300
O539        O  0.14612707  0.44928371  0.74819319    -0.83300
O540        O  0.21394324  0.37827728  0.73757272    -0.85900
C541        C  0.25937899  0.38798334  0.74022357     1.01700
O542        O  0.28161832  0.41494952  0.72132559    -0.78700
O543        O  0.28417654  0.50749915  0.70712745    -0.78900
C544        C  0.27266801  0.55049816  0.70123334     1.01700
Cr545      Cr  0.17553724  0.51550726  0.69822007     1.93700
Cr546      Cr  0.16175628  0.40672747  0.71106158     1.93200
Cr547      Cr  0.25950868  0.44841672  0.68449179     1.39100
O548        O  0.19901828  0.45500397  0.69718988    -1.24000
O549        O  0.25132853  0.52994006  0.89714422    -0.86200
O550        O  0.26762177  0.61171181  0.93246141    -0.83300
C551        C  0.23270082  0.64005731  0.92588025     0.97300
O552        O  0.18864721  0.62707523  0.93178666    -0.83300
O553        O  0.10810778  0.56267522  0.95446295    -0.85900
C554        C  0.09418590  0.52881503  0.93588380     1.01800
O555        O  0.12619141  0.50497216  0.92194636    -0.78700
O556        O  0.21020460  0.46229862  0.90571285    -0.78900
C557        C  0.22702333  0.49375118  0.88713524     1.01700
O558        O  0.28867945  0.46769120  0.94362016    -0.86200
O559        O  0.28932956  0.54849751  0.98151324    -0.83300
C560        C  0.27889590  0.58761683  0.99543920     0.97300
O561        O  0.24042635  0.61104772  0.98795912    -0.83300
O562        O  0.17439550  0.54952766  0.50526479    -0.85900
C563        C  0.15479082  0.50900656  0.51134619     1.01700
O564        O  0.14308080  0.47839819  0.49048830    -0.78700
O565        O  0.22664275  0.44137712  0.97021770    -0.78900
C566        C  0.27101532  0.43867518  0.96301126     1.01700
Cr567      Cr  0.26982091  0.53888644  0.93944908     1.93700
Cr568      Cr  0.17792568  0.58416113  0.96806151     1.93200
Cr569      Cr  0.17773363  0.47591360  0.94615825     1.39100
O570        O  0.20797358  0.53311531  0.95104000    -1.24000
O571        O  0.45125885  0.74399545  0.86346792    -0.86200
O572        O  0.36038855  0.72489994  0.84058700    -0.83300
C573        C  0.33811011  0.76248659  0.85056763     0.97300
O574        O  0.34968126  0.80472252  0.84069587    -0.83300
O575        O  0.40530282  0.87867683  0.80619256    -0.85900
C576        C  0.44501068  0.89561499  0.81804372     1.01800
O577        O  0.47687879  0.86608157  0.82682611    -0.78700
O578        O  0.51762601  0.78036819  0.84511513    -0.78900
C579        C  0.49242176  0.76433312  0.86753840     1.01700
O580        O  0.49748317  0.69443965  0.81377949    -0.86200
O581        O  0.40766344  0.69284771  0.78612658    -0.83300
C582        C  0.36647482  0.70292098  0.77557934     0.97300
O583        O  0.34538261  0.74236189  0.78499930    -0.83300
O584        O  0.40077540  0.80869085  0.75733442    -0.85900
C585        C  0.44035764  0.82310427  0.74612846     1.01700
O586        O  0.47683718  0.83301786  0.76322395    -0.78700
O587        O  0.51693559  0.74853133  0.78021604    -0.78900
C588        C  0.52178126  0.70621445  0.79050704     1.01700
Cr589      Cr  0.42953919  0.71849989  0.82489045     1.93700
Cr590      Cr  0.37917096  0.80729651  0.79884081     1.93200
Cr591      Cr  0.49272663  0.80496377  0.80441080     1.39100
O592        O  0.43392714  0.77800552  0.80980614    -1.24000
C593        C  0.22577057  0.70299507  0.88428027    -0.02700
C594        C  0.24661091  0.68820344  0.91180672     0.07000
C595        C  0.28854264  0.71445725  0.92263424    -0.02800
C596        C  0.31366760  0.74809322  0.90385406    -0.02800
C597        C  0.29906324  0.75381397  0.87372396     0.07100
C598        C  0.25286480  0.73445092  0.86485277    -0.03000
Br599      Br  0.22834370  0.74868238  0.82536615    -0.01600
Br600      Br  0.16248064  0.67734552  0.87211774    -0.01600
Br601      Br  0.37025696  0.78434959  0.91829877    -0.01600
Br602      Br  0.31353024  0.70324737  0.96267632    -0.01600
C603        C  0.36948790  0.62219522  0.74502539    -0.02700
C604        C  0.34393691  0.66656027  0.75326969     0.07000
C605        C  0.29781004  0.67505166  0.73940135    -0.02800
C606        C  0.27702268  0.63971992  0.71928911    -0.02800
C607        C  0.30021556  0.59377058  0.71414993     0.07100
C608        C  0.34815284  0.58723658  0.72511532    -0.03000
Br609      Br  0.38674225  0.53116641  0.71134617    -0.01600
Br610      Br  0.43315509  0.60420928  0.76124211    -0.01600
Br611      Br  0.21684316  0.65614156  0.69856350    -0.01600
Br612      Br  0.25969287  0.73316590  0.74841321    -0.01600
C613        C  0.19394403  0.44695701  0.84129677    -0.02700
C614        C  0.21586940  0.49015133  0.85385724     0.07000
C615        C  0.22153834  0.53212474  0.83501846    -0.02800
C616        C  0.20242991  0.53191549  0.80543432    -0.02800
C617        C  0.18127273  0.48843844  0.79271240     0.07100
C618        C  0.17543698  0.44655008  0.81149693    -0.03000
Br619      Br  0.14019457  0.38775286  0.79817626    -0.01600
Br620      Br  0.19246465  0.38563888  0.86336050    -0.01600
Br621      Br  0.20206763  0.59399345  0.78393026    -0.01600
Br622      Br  0.25759932  0.59093626  0.84767743    -0.01600
C623        C  0.15898601  0.53995937  0.59299484    -0.02700
C624        C  0.18522451  0.49933284  0.60378099     0.07000
C625        C  0.19303702  0.45825173  0.58444537    -0.02800
C626        C  0.17305547  0.45670324  0.55519299    -0.02800
C627        C  0.14984356  0.49852311  0.54383801     0.07100
C628        C  0.13996429  0.53881155  0.56353288    -0.03000
Br629      Br  0.10168482  0.59358102  0.54947110    -0.01600
Br630      Br  0.15567489  0.60028546  0.61671102    -0.01600
Br631      Br  0.17870778  0.39752362  0.53068585    -0.01600
Br632      Br  0.23525731  0.40602343  0.59617751    -0.01600
C633        C  0.31378711  0.35761143  0.96286452    -0.02700
C634        C  0.30168760  0.40180986  0.97792368     0.07000
C635        C  0.31302123  0.40117028  0.50412931    -0.02800
C636        C  0.33466374  0.36222873  0.51956981    -0.02800
C637        C  0.34381154  0.31676875  0.50442112     0.07100
C638        C  0.33731456  0.31964838  0.97857486    -0.03000
Br639      Br  0.34935564  0.25838282  0.95732136    -0.01600
Br640      Br  0.29651475  0.34887814  0.92077825    -0.01600
Br641      Br  0.34810121  0.37104993  0.56242323    -0.01600
Br642      Br  0.30082274  0.46262632  0.52542962    -0.01600
C643        C  0.31005019  0.24836077  0.64391250    -0.02700
C644        C  0.30011823  0.23819778  0.61333055     0.07000
C645        C  0.25454597  0.25468192  0.60169513    -0.02800
C646        C  0.22238177  0.28479233  0.61982610    -0.02800
C647        C  0.23717823  0.30197854  0.64887064     0.07100
C648        C  0.28019462  0.28075796  0.66093439    -0.03000
Br649      Br  0.30292198  0.29934230  0.70015832    -0.01600
Br650      Br  0.36785335  0.22086138  0.66203053    -0.01600
Br651      Br  0.15894428  0.30308668  0.60482406    -0.01600
Br652      Br  0.23849724  0.24032939  0.56007406    -0.01600
C653        C  0.98030477  0.44276589  0.93588208    -0.02700
C654        C  0.94159707  0.47672360  0.93890416     0.07000
C655        C  0.95360985  0.52812080  0.93683030    -0.02800
C656        C  0.00283004  0.54470761  0.93389923    -0.02800
C657        C  0.04159760  0.51108991  0.93378934     0.07100
C658        C  0.02978955  0.45959106  0.93336576    -0.03000
Br659      Br  0.08082316  0.41039413  0.93112873    -0.01600
Br660      Br  0.96641755  0.37292807  0.93782678    -0.01600
Br661      Br  0.01738241  0.61394571  0.92842704    -0.01600
Br662      Br  0.90393389  0.57837491  0.93835430    -0.01600
C663        C  0.58172998  0.34419076  0.52943178    -0.02700
C664        C  0.58501380  0.29320736  0.53485971     0.07000
C665        C  0.63634858  0.28258890  0.02851187    -0.02800
C666        C  0.67123692  0.30477209  0.00905435    -0.02800
C667        C  0.66244656  0.35133994  0.99643953     0.07100
C668        C  0.61618734  0.36760423  0.51041105    -0.03000
Br669      Br  0.60168206  0.43342184  0.49806459    -0.01600
Br670      Br  0.53228769  0.38384511  0.54983814    -0.01600
Br671      Br  0.72871803  0.26794000  0.99707589    -0.01600
Br672      Br  0.65433684  0.22130158  0.04729415    -0.01600
C673        C  0.46915031  0.97309152  0.79021517    -0.02700
C674        C  0.45937155  0.94979872  0.81814289     0.07000
C675        C  0.47597065  0.97440158  0.84493157    -0.02800
C676        C  0.49861076  0.02212810  0.84370959    -0.02800
C677        C  0.50700958  0.04521019  0.81563183     0.07100
C678        C  0.49552749  0.01818389  0.78908751    -0.03000
Br679      Br  0.52145501  0.04067051  0.75094661    -0.01600
Br680      Br  0.44656664  0.94433138  0.75272901    -0.01600
Br681      Br  0.52302108  0.05382510  0.87993040    -0.01600
Br682      Br  0.46573974  0.94360113  0.88352473    -0.01600
C683        C  0.37286841  0.36868959  0.78525562    -0.02700
C684        C  0.37304314  0.31663122  0.78673039     0.07000
C685        C  0.32792215  0.29078294  0.78279880    -0.02800
C686        C  0.28617526  0.31525973  0.77174444    -0.02800
C687        C  0.28977717  0.36572133  0.76449747     0.07100
C688        C  0.33040367  0.39299581  0.77543864    -0.03000
Br689      Br  0.32624357  0.46397593  0.77760245    -0.01600
Br690      Br  0.43106308  0.40735089  0.79373699    -0.01600
Br691      Br  0.22620141  0.27839682  0.76448925    -0.01600
Br692      Br  0.32302913  0.22174006  0.79265094    -0.01600
C693        C  0.69032274  0.25528276  0.87202192    -0.02700
C694        C  0.66745620  0.27553122  0.84636769     0.07000
C695        C  0.68671965  0.32100317  0.83530935    -0.02800
C696        C  0.72351380  0.34729700  0.85103044    -0.02800
C697        C  0.74008187  0.33125789  0.87930400     0.07100
C698        C  0.72736166  0.28250885  0.88790352    -0.03000
Br699      Br  0.76149894  0.25190788  0.92055137    -0.01600
Br700      Br  0.66750546  0.19321269  0.88774084    -0.01600
Br701      Br  0.75085774  0.40652471  0.83352385    -0.01600
Br702      Br  0.66128207  0.35222070  0.79981662    -0.01600
C703        C  0.46945630  0.13594907  0.68836481    -0.02700
C704        C  0.51056340  0.15628907  0.70369071     0.07000
C705        C  0.54980498  0.17607136  0.68615057    -0.02800
C706        C  0.54294196  0.18600448  0.65533051    -0.02800
C707        C  0.49982017  0.17005063  0.64090167     0.07100
C708        C  0.46577077  0.14039258  0.65666307    -0.03000
Br709      Br  0.41427041  0.10623573  0.63478000    -0.01600
Br710      Br  0.41882309  0.10086462  0.71026483    -0.01600
Br711      Br  0.59295502  0.22082494  0.63256635    -0.01600
Br712      Br  0.61394930  0.18810209  0.70279025    -0.01600
C713        C  0.44703966  0.16399551  0.93393177    -0.02700
C714        C  0.46385290  0.20077240  0.95450493     0.07000
C715        C  0.47358194  0.24876697  0.94401288    -0.02800
C716        C  0.46919829  0.25912589  0.91306576    -0.02800
C717        C  0.45711226  0.22113793  0.89201246     0.07100
C718        C  0.44267142  0.17442324  0.90288400    -0.03000
Br719      Br  0.41577145  0.12451041  0.87594800    -0.01600
Br720      Br  0.43233052  0.09815298  0.94778079    -0.01600
Br721      Br  0.47561133  0.32677704  0.90004734    -0.01600
Br722      Br  0.48938262  0.30179374  0.97210069    -0.01600
C723        C  0.94009182  0.46585677  0.68841835    -0.02700
C724        C  0.92688404  0.51681539  0.69160593     0.07000
C725        C  0.96515512  0.55194600  0.68860129    -0.02800
C726        C  0.01511267  0.53665541  0.68711863    -0.02800
C727        C  0.02818746  0.48568837  0.68905278     0.07100
C728        C  0.98978448  0.45070449  0.68880739    -0.03000
Br729      Br  0.00443901  0.38139563  0.69165447    -0.01600
Br730      Br  0.89129515  0.41468937  0.68097097    -0.01600
Br731      Br  0.06516343  0.58716640  0.68221658    -0.01600
Br732      Br  0.94982376  0.62108857  0.68545994    -0.01600
C733        C  0.57849594  0.35573383  0.72131446    -0.02700
C734        C  0.60351829  0.31660428  0.73535801     0.07000
C735        C  0.65542644  0.31283054  0.73056338    -0.02800
C736        C  0.68147620  0.35207126  0.71715823    -0.02800
C737        C  0.65680561  0.39494305  0.70857539     0.07100
C738        C  0.60516036  0.39544703  0.70874457    -0.03000
Br739      Br  0.57122858  0.45267305  0.69457035    -0.01600
Br740      Br  0.50759699  0.35573099  0.71891627    -0.01600
Br741      Br  0.75223943  0.34881027  0.71224119    -0.01600
Br742      Br  0.69430401  0.25882301  0.74558415    -0.01600
C743        C  0.78007196  0.58304281  0.82190893    -0.02700
C744        C  0.80013737  0.54372822  0.80442380     0.07000
C745        C  0.82635819  0.50690632  0.81944846    -0.02800
C746        C  0.82514154  0.50466814  0.85132585    -0.02800
C747        C  0.79580823  0.53779018  0.86830940     0.07100
C748        C  0.77632615  0.57897237  0.85373629    -0.03000
Br749      Br  0.74712522  0.63086777  0.87766586    -0.01600
Br750      Br  0.75842661  0.64287709  0.80307173    -0.01600
Br751      Br  0.86265725  0.45506125  0.87129729    -0.01600
Br752      Br  0.86569333  0.46062592  0.79635971    -0.01600
C753        C  0.82657022  0.50224235  0.60023469    -0.02700
C754        C  0.79745057  0.46814803  0.61640717     0.07000
C755        C  0.77910924  0.42613053  0.60139661    -0.02800
C756        C  0.78594377  0.42075907  0.56989400    -0.02800
C757        C  0.80702282  0.45953509  0.55278120     0.07100
C758        C  0.82980113  0.49909012  0.56839069    -0.03000
Br759      Br  0.86615929  0.54833720  0.54623311    -0.01600
Br760      Br  0.86238324  0.55275902  0.62200527    -0.01600
Br761      Br  0.76538597  0.36021152  0.55131595    -0.01600
Br762      Br  0.74045606  0.37837818  0.62354974    -0.01600
C763        C  0.62539290  0.61419214  0.77650235    -0.02700
C764        C  0.63146752  0.61778608  0.74493036     0.07000
C765        C  0.59467990  0.64125758  0.72810715    -0.02800
C766        C  0.55741601  0.66810800  0.74308726    -0.02800
C767        C  0.55654500  0.67165759  0.77514566     0.07100
C768        C  0.58991241  0.64312678  0.79180665    -0.03000
Br769      Br  0.58997759  0.64575761  0.83547911    -0.01600
Br770      Br  0.65931557  0.56338841  0.79775411    -0.01600
Br771      Br  0.50638205  0.69802519  0.71932709    -0.01600
Br772      Br  0.59273530  0.63348928  0.68454014    -0.01600
C773        C  0.51950016  0.96855480  0.56386116    -0.02700
C774        C  0.48779298  0.93013237  0.55500536     0.07000
C775        C  0.43956538  0.94202085  0.54506797    -0.02800
C776        C  0.42351638  0.99151632  0.54441958    -0.02800
C777        C  0.45515906  0.03019750  0.55348496     0.07100
C778        C  0.50394963  0.01804749  0.56250824    -0.03000
Br779      Br  0.55222691  0.06812291  0.57206948    -0.01600
Br780      Br  0.58403363  0.95308041  0.57888260    -0.01600
Br781      Br  0.36007325  0.00674244  0.52769376    -0.01600
Br782      Br  0.39542383  0.89103907  0.53017930    -0.01600
C783        C  0.36618482  0.58589184  0.51170749    -0.02700
C784        C  0.31476429  0.60815925  0.01798629     0.07000
C785        C  0.30126765  0.63580854  0.53467405    -0.02800
C786        C  0.33680987  0.66168020  0.55162092    -0.02800
C787        C  0.38662094  0.64832530  0.54975016     0.07100
C788        C  0.40031564  0.60769223  0.53173050    -0.03000
Br789      Br  0.46731190  0.58499949  0.53244580    -0.01600
Br790      Br  0.39161697  0.53866104  0.48230851    -0.02400
Br791      Br  0.31750085  0.71876454  0.57491038    -0.01600
Br792      Br  0.23335984  0.66435849  0.04486470    -0.01600
C793        C  0.64315720  0.61155447  0.97061627    -0.02700
C794        C  0.66362406  0.57224599  0.98637931     0.07000
C795        C  0.65209352  0.56360249  0.51800527    -0.02800
C796        C  0.62669168  0.60089797  0.53376993    -0.02800
C797        C  0.60367262  0.63859192  0.51762005     0.07100
C798        C  0.61807444  0.64900169  0.98645990    -0.03000
Br799      Br  0.59823622  0.70624010  0.96480918    -0.01600
Br800      Br  0.64643797  0.61199018  0.92701587    -0.01600
Br801      Br  0.62592787  0.60185483  0.57756153    -0.01600
Br802      Br  0.68383139  0.51252624  0.54039177    -0.01600
C803        C  0.69916263  0.71923050  0.66090238    -0.02700
C804        C  0.72631825  0.68258037  0.64557389     0.07000
C805        C  0.73022758  0.68475981  0.61382800    -0.02800
C806        C  0.70190864  0.71897951  0.59760889    -0.02800
C807        C  0.66619178  0.74818329  0.61270209     0.07100
C808        C  0.66773442  0.75029278  0.64467405    -0.03000
Br809      Br  0.62322530  0.79116134  0.66687531    -0.01600
Br810      Br  0.70283616  0.72460359  0.70445335    -0.01600
Br811      Br  0.70883972  0.72273144  0.55432394    -0.01600
Br812      Br  0.77080745  0.63788352  0.59256196    -0.01600
C813        C  0.48468665  0.74698198  0.95099453    -0.02700
C814        C  0.50209868  0.79284389  0.96204644     0.07000
C815        C  0.52672187  0.82501585  0.94199654    -0.02800
C816        C  0.52996188  0.81333137  0.91075308    -0.02800
C817        C  0.50813023  0.76947924  0.89952098     0.07100
C818        C  0.48981210  0.73449270  0.92024614    -0.03000
Br819      Br  0.47460869  0.66774627  0.90676615    -0.01600
Br820      Br  0.45673471  0.69900239  0.97797708    -0.01600
Br821      Br  0.56696838  0.85562703  0.88409156    -0.01600
Br822      Br  0.55610344  0.88505120  0.95752025    -0.01600
C823        C  0.48641709  0.83655903  0.69624198    -0.02700
C824        C  0.44286363  0.82481890  0.71232884     0.07000
C825        C  0.40135969  0.80800969  0.69526462    -0.02800
C826        C  0.40804224  0.78866037  0.66600620    -0.02800
C827        C  0.45286933  0.79633893  0.65116058     0.07100
C828        C  0.48862730  0.82686120  0.66488033    -0.03000
Br829      Br  0.53477767  0.86154460  0.63950793    -0.01600
Br830      Br  0.54350733  0.86460540  0.71581666    -0.01600
Br831      Br  0.35653542  0.74978641  0.64749209    -0.01600
Br832      Br  0.33448384  0.81491673  0.70945816    -0.01600
loop_ 
_geom_bond_atom_site_label_1 
_geom_bond_atom_site_label_2 
_geom_bond_distance 
_geom_bond_site_symmetry_2 
_ccdc_geom_bond_type 
O1          Cr19   2.005       .  S
O1            C9   1.269       .  A
O2          Cr19   1.938       .  S
O2            C3   1.243       .  A
C3            O4   1.280       .  A
C3          C358   1.512       .  S
O4          Cr20   2.072       .  S
O5          Cr20   2.034       .  S
O5            C6   1.273       .  A
C6            O7   1.259       .  A
C6          C391   1.505       .  S
O7          Cr21   1.994       .  S
O8          Cr21   1.962       .  S
O8            C9   1.262       .  A
C9          C411   1.468       .  S
O10         Cr19   1.950       .  S
O10          C18   1.248       .  A
O11         Cr19   2.027       .  S
O11         C428   1.269   1_554  A
C12          O13   1.255       .  A
C12         O427   1.266       .  A
C12         C398   1.487       .  S
O13        Cr436   1.963       .  S
O14         Cr20   2.026       .  S
O14          C15   1.277       .  A
C15          O16   1.267       .  A
C15         C381   1.482       .  S
O16         Cr21   1.974       .  S
O17         Cr21   2.023       .  S
O17          C18   1.261       .  A
C18         C371   1.473       .  S
Cr19         O22   1.774       .  S
Cr20        O429   1.942       .  S
Cr20         O22   1.782       .  S
Cr21         O22   1.773       .  S
O23         Cr41   2.054       .  S
O23          C31   1.288       .  A
O24         Cr41   1.953       .  S
O24          C25   1.251       .  A
C25          O26   1.284       .  A
C25         C308   1.532       .  S
O26         Cr42   2.071       .  S
O27         Cr42   2.019       .  S
O27          C28   1.258       .  A
C28          O29   1.252       .  A
C28         C388   1.502       .  S
O29         Cr43   1.999       .  S
O30         Cr43   1.935       .  S
O30          C31   1.266       .  A
C31         C338   1.471       .  S
O32         Cr41   1.965       .  S
O32          C40   1.240       .  A
O33         Cr41   1.991       .  S
O33          C34   1.263       .  A
C34          O35   1.259       .  A
C34         C328   1.494       .  S
O35         Cr42   1.992       .  S
O36         Cr42   2.065       .  S
O36          C37   1.296       .  A
C37          O38   1.274       .  A
C37         C348   1.478       .  S
O38         Cr43   1.960       .  S
O39         Cr43   2.039       .  S
O39          C40   1.253       .  A
C40         C321   1.491       .  S
Cr41         O44   1.760       .  S
Cr42         O44   1.766       .  S
Cr43         O44   1.785       .  S
O45         Cr63   1.958       .  S
O45          C53   1.275       .  A
O46         Cr63   1.938       .  S
O46          C47   1.240       .  A
C47          O48   1.267       .  A
C47         C278   1.505       .  S
O48         Cr64   2.042       .  S
O49         Cr64   2.051       .  S
O49          C50   1.276       .  A
C50          O51   1.255       .  A
C50         C261   1.507       .  S
O51         Cr65   1.966       .  S
O52         Cr65   2.038       .  S
O52          C53   1.285       .  A
C53         C301   1.489       .  S
O54         Cr63   1.979       .  S
O54          C62   1.240       .  A
O55         Cr63   1.992       .  S
O55          C56   1.281       .  A
C56          O57   1.282       .  A
C56         C318   1.508       .  S
O57         Cr64   2.040       .  S
O58         Cr64   1.987       .  S
O58          C59   1.261       .  A
C59          O60   1.263       .  A
C59         C288   1.487       .  S
O60         Cr65   1.980       .  S
O61         Cr65   1.978       .  S
O61          C62   1.244       .  A
C62         C268   1.474       .  S
Cr63         O66   1.766       .  S
Cr64         O66   1.789       .  S
Cr65         O66   1.770       .  S
O67         Cr85   2.026       .  S
O67          C75   1.272       .  A
O68         Cr85   1.967       .  S
O68          C69   1.259       .  A
C69          O70   1.266       .  A
C69         C281   1.505       .  S
O70         Cr86   2.028       .  S
O71         Cr86   2.050       .  S
O71          C72   1.278       .  A
C72          O73   1.250       .  A
C72         C238   1.506       .  S
O73         Cr87   1.968       .  S
O74         Cr87   1.981       .  S
O74          C75   1.262       .  A
C75         C331   1.491       .  S
O76         Cr85   1.975       .  S
O76          C84   1.248       .  A
O77         Cr85   2.002       .  S
O77          C78   1.264       .  A
C78          O79   1.267       .  A
C78         C251   1.504       .  S
O79         Cr86   2.003       .  S
O80        Cr502   2.016   1_554  S
O80          C81   1.270       .  A
C81          O82   1.274       .  A
C81         C341   1.484       .  S
O82        Cr503   1.990   1_554  S
O83         Cr87   1.985       .  S
O83          C84   1.251       .  A
C84         C378   1.467       .  S
Cr85         O88   1.782       .  S
Cr86        O496   2.019       .  S
Cr86         O88   1.780       .  S
Cr87        O498   1.992       .  S
Cr87         O88   1.781       .  S
O89        Cr107   1.968       .  S
O89          C97   1.269       .  A
O90        Cr107   1.965       .  S
O90          C91   1.239       .  A
C91          O92   1.271       .  A
C91         C361   1.511       .  S
O92        Cr108   2.062       .  S
O93        Cr108   2.017       .  S
O93          C94   1.269       .  A
C94          O95   1.262       .  A
C94         C228   1.506       .  S
O95        Cr109   1.989       .  S
O96        Cr109   2.026       .  S
O96          C97   1.283       .  A
C97         C291   1.465       .  S
O98        Cr107   1.984       .  S
O98         C106   1.241       .  A
O99        Cr107   1.977       .  S
O99         C516   1.276   1_554  A
C100        O101   1.282       .  A
C100        O515   1.280       .  A
C100        C298   1.485       .  S
O101       Cr524   2.023       .  S
O102       Cr108   2.007       .  S
O102        C103   1.269       .  A
C103        O104   1.260       .  A
C103        C221   1.494       .  S
O104       Cr109   1.965       .  S
O105       Cr109   1.992       .  S
O105        C106   1.246       .  A
C106        C248   1.504       .  S
Cr107       O110   1.777       .  S
Cr108       O517   2.020   1_554  S
Cr108       O110   1.768       .  S
Cr109       O110   1.758       .  S
O111       Cr129   1.969       .  S
O111        C119   1.275       .  A
O112       Cr129   1.966       .  S
O112        C113   1.237       .  A
C113        O114   1.277       .  A
C113        C311   1.531       .  S
O114       Cr130   2.089       .  S
O115       Cr130   2.033       .  S
O115        C116   1.271       .  A
C116        O117   1.262       .  A
C116        C231   1.507       .  S
O117       Cr131   1.986       .  S
O118       Cr131   2.037       .  S
O118        C119   1.287       .  A
C119        C208   1.488       .  S
O120       Cr129   1.984       .  S
O120        C128   1.240       .  A
O121       Cr129   1.984       .  S
O121        C122   1.278       .  A
C122        O123   1.279       .  A
C122        C201   1.477       .  S
O123       Cr130   2.007       .  S
O124       Cr130   2.018       .  S
O124        C125   1.270       .  A
C125        O126   1.261       .  A
C125        C271   1.506       .  S
O126       Cr131   1.964       .  S
O127       Cr131   2.000       .  S
O127        C128   1.245       .  A
C128        C191   1.493       .  S
Cr129       O132   1.769       .  S
Cr130       O132   1.764       .  S
Cr131       O132   1.758       .  S
O133       Cr151   1.931       .  S
O133        C141   1.255       .  A
O134       Cr151   2.008       .  S
O134        C135   1.266       .  A
C135        O136   1.268       .  A
C135        C178   1.480       .  S
O136       Cr152   2.000       .  S
O137       Cr152   2.073       .  S
O137        C138   1.277       .  A
C138        O139   1.242       .  A
C138        C241   1.501       .  S
O139       Cr153   1.936       .  S
O140       Cr153   2.044       .  S
O140        C141   1.278       .  A
C141        C198   1.483       .  S
O142       Cr151   2.023       .  S
O142        C150   1.262       .  A
O143       Cr151   1.942       .  S
O143        C144   1.253       .  A
C144        O145   1.280       .  A
C144        C368   1.490       .  S
O145       Cr152   2.048       .  S
O146       Cr568   1.941   1_554  S
O146        C147   1.255       .  A
C147        O148   1.271   1_554  A
C147        C211   1.475       .  S
O148       Cr569   2.034       .  S
O149       Cr153   1.949       .  S
O149        C150   1.245       .  A
C150        C218   1.471       .  S
Cr151       O154   1.755       .  S
Cr152       O562   1.919       .  S
Cr152       O154   1.766       .  S
Cr153       O564   2.039       .  S
Cr153       O154   1.757       .  S
O155       Cr173   1.943       .  S
O155        C163   1.257       .  A
O156       Cr173   1.999       .  S
O156        C157   1.262       .  A
C157        O158   1.271       .  A
C157        C181   1.490       .  S
O158       Cr174   2.014       .  S
O159       Cr174   2.062       .  S
O159        C160   1.275       .  A
C160        O161   1.251       .  A
C160        C258   1.515       .  S
O161       Cr175   1.970       .  S
O162       Cr175   2.038       .  S
O162        C163   1.279       .  A
C163        C401   1.505       .  S
O164       Cr173   2.009       .  S
O164        C172   1.258       .  A
O165       Cr173   1.975       .  S
O165        C166   1.265       .  A
C166        O167   1.278       .  A
C166        C188   1.506       .  S
O167       Cr174   2.039       .  S
O168       Cr174   1.909       .  S
O168        C169   1.248       .  A
C169        O170   1.276       .  A
C169        C408   1.490       .  S
O170       Cr175   2.042       .  S
O171       Cr175   1.964       .  S
O171        C172   1.249       .  A
C172        C351   1.491       .  S
Cr173       O176   1.766       .  S
Cr174       O176   1.768       .  S
Cr175       O176   1.773       .  S
C177        C178   1.402       .  A
C177        C182   1.409       .  A
C177       Br184   1.933       .  S
C178        C179   1.414       .  A
C179        C180   1.414       .  A
C179       Br186   1.927       .  S
C180        C181   1.409       .  A
C180       Br185   1.928       .  S
C181        C182   1.419       .  A
C182       Br183   1.920       .  S
C187        C188   1.420       .  A
C187        C192   1.412       .  A
C187       Br194   1.930       .  S
C188        C189   1.416       .  A
C189        C190   1.409       .  A
C189       Br196   1.934       .  S
C190        C191   1.418       .  A
C190       Br195   1.935       .  S
C191        C192   1.412       .  A
C192       Br193   1.934       .  S
C197        C198   1.413       .  A
C197        C202   1.406       .  A
C197       Br204   1.927       .  S
C198        C199   1.419       .  A
C199        C200   1.406       .  A
C199       Br206   1.940       .  S
C200        C201   1.409       .  A
C200       Br205   1.930       .  S
C201        C202   1.413       .  A
C202       Br203   1.938       .  S
C207        C208   1.415       .  A
C207        C212   1.408       .  A
C207       Br214   1.931       .  S
C208        C209   1.416       .  A
C209        C210   1.404       .  A
C209       Br216   1.918       .  S
C210        C211   1.401       .  A
C210       Br215   1.928       .  S
C211        C212   1.409       .  A
C212       Br213   1.930       .  S
C217        C218   1.407       .  A
C217        C222   1.412       .  A
C217       Br224   1.929       .  S
C218        C635   1.408       .  A
C219        C220   1.406       .  A
C219        C634   1.407   1_554  A
C219       Br226   1.931       .  S
C220        C221   1.422       .  A
C220       Br225   1.940       .  S
C221        C638   1.420   1_554  A
C222        C637   1.415       .  A
C222       Br223   1.926       .  S
C227        C228   1.411       .  A
C227        C232   1.413       .  A
C227       Br234   1.924       .  S
C228        C229   1.423       .  A
C229        C230   1.423       .  A
C229       Br236   1.927       .  S
C230        C231   1.409       .  A
C230       Br235   1.925       .  S
C231        C232   1.410       .  A
C232       Br233   1.917       .  S
C237        C238   1.406       .  A
C237        C242   1.417   1_655  A
C237       Br244   1.932       .  S
C238        C239   1.429       .  A
C239        C240   1.415       .  A
C239       Br246   1.922       .  S
C240        C241   1.401   1_655  A
C240       Br245   1.932   1_655  S
C241        C242   1.428       .  A
C242       Br243   1.931       .  S
C247        C248   1.417       .  A
C247        C252   1.410       .  A
C247       Br254   1.942       .  S
C248        C665   1.424       .  A
C249        C250   1.416       .  A
C249        C664   1.423       .  A
C249       Br256   1.936       .  S
C250        C251   1.415       .  A
C250       Br255   1.927       .  S
C251        C668   1.419       .  A
C252        C667   1.420   1_554  A
C252       Br253   1.929   1_554  S
C257        C258   1.414       .  A
C257        C262   1.412   1_565  A
C257       Br264   1.923       .  S
C258        C259   1.422       .  A
C259        C260   1.430   1_565  A
C259       Br266   1.925       .  S
C260        C261   1.413       .  A
C260       Br265   1.923       .  S
C261        C262   1.411       .  A
C262       Br263   1.927       .  S
C267        C268   1.402       .  A
C267        C272   1.407       .  A
C267       Br274   1.934       .  S
C268        C269   1.405       .  A
C269        C270   1.410       .  A
C269       Br276   1.930       .  S
C270        C271   1.420       .  A
C270       Br275   1.930       .  S
C271        C272   1.427       .  A
C272       Br273   1.932       .  S
C277        C278   1.414       .  A
C277        C282   1.424       .  A
C277       Br284   1.928       .  S
C278        C279   1.428       .  A
C279        C280   1.400       .  A
C279       Br286   1.931       .  S
C280        C281   1.400       .  A
C280       Br285   1.927       .  S
C281        C282   1.419       .  A
C282       Br283   1.914       .  S
C287        C288   1.415       .  A
C287        C292   1.406       .  A
C287       Br294   1.932       .  S
C288        C289   1.422       .  A
C289        C290   1.404       .  A
C289       Br296   1.925       .  S
C290        C291   1.399       .  A
C290       Br295   1.933       .  S
C291        C292   1.407       .  A
C292       Br293   1.929       .  S
C297        C298   1.419       .  A
C297        C302   1.413       .  A
C297       Br304   1.934       .  S
C298        C299   1.413       .  A
C299        C300   1.403       .  A
C299       Br306   1.931       .  S
C300        C301   1.411       .  A
C300       Br305   1.935       .  S
C301        C302   1.414       .  A
C302       Br303   1.933       .  S
C307        C308   1.436       .  A
C307        C312   1.425       .  A
C307       Br314   1.936       .  S
C308        C309   1.410       .  A
C309        C310   1.424   1_655  A
C309       Br316   1.933       .  S
C310        C311   1.439       .  A
C310       Br315   1.940       .  S
C311        C312   1.410   1_455  A
C312       Br313   1.931   1_655  S
C317        C318   1.414       .  A
C317        C322   1.415       .  A
C317       Br324   1.927       .  S
C318        C319   1.423       .  A
C319        C320   1.412       .  A
C319       Br326   1.937       .  S
C320        C321   1.413       .  A
C320       Br325   1.937       .  S
C321        C322   1.409       .  A
C322       Br323   1.924       .  S
C327        C328   1.418       .  A
C327        C332   1.415       .  A
C327       Br334   1.932       .  S
C328        C329   1.410       .  A
C329        C330   1.411       .  A
C329       Br336   1.932       .  S
C330        C331   1.413       .  A
C330       Br335   1.928       .  S
C331        C332   1.409       .  A
C332       Br333   1.924       .  S
C337        C338   1.412       .  A
C337        C342   1.404       .  A
C337       Br344   1.926       .  S
C338        C339   1.402       .  A
C339        C340   1.409       .  A
C339       Br346   1.931       .  S
C340        C341   1.417       .  A
C340       Br345   1.913       .  S
C341        C342   1.404       .  A
C342       Br343   1.930       .  S
C347        C348   1.405       .  A
C347        C352   1.412       .  A
C347       Br354   1.930       .  S
C348        C349   1.407       .  A
C349        C350   1.404       .  A
C349       Br356   1.927       .  S
C350        C351   1.418       .  A
C350       Br355   1.937       .  S
C351        C352   1.419       .  A
C352       Br353   1.930       .  S
C357        C358   1.407       .  A
C357        C362   1.419   1_565  A
C357       Br364   1.932       .  S
C358        C359   1.433       .  A
C359        C360   1.417   1_565  A
C359       Br366   1.939       .  S
C360        C361   1.406       .  A
C360       Br365   1.933       .  S
C361        C362   1.433       .  A
C362       Br363   1.936       .  S
C367        C372   1.407       .  A
C367        C784   1.431       .  A
C367       Br374   1.942   1_554  S
C368        C783   1.428       .  A
C368        C785   1.412       .  A
C369        C370   1.406       .  A
C369        C784   1.416       .  A
C369       Br792   1.935       .  S
C370        C371   1.408       .  A
C370       Br375   1.926       .  S
C371        C372   1.401       .  A
C372       Br373   1.932       .  S
Br376       C785   1.931       .  S
C377        C378   1.404       .  A
C377        C382   1.403       .  A
C377       Br384   1.927       .  S
C378        C795   1.410       .  A
C379        C380   1.410       .  A
C379        C794   1.410   1_554  A
C379       Br386   1.929       .  S
C380        C381   1.413       .  A
C380       Br385   1.931       .  S
C381        C798   1.412   1_554  A
C382        C797   1.408       .  A
C382       Br383   1.920       .  S
C387        C388   1.416       .  A
C387        C392   1.422       .  A
C387       Br394   1.927       .  S
C388        C389   1.409       .  A
C389        C390   1.414       .  A
C389       Br396   1.922       .  S
C390        C391   1.413       .  A
C390       Br395   1.921       .  S
C391        C392   1.413       .  A
C392       Br393   1.917       .  S
C397        C398   1.407       .  A
C397        C402   1.407       .  A
C397       Br404   1.926       .  S
C398        C399   1.410       .  A
C399        C400   1.414       .  A
C399       Br406   1.933       .  S
C400        C401   1.423       .  A
C400       Br405   1.935       .  S
C401        C402   1.429       .  A
C402       Br403   1.948       .  S
C407        C408   1.408       .  A
C407        C412   1.408       .  A
C407       Br414   1.925       .  S
C408        C409   1.422       .  A
C409        C410   1.396       .  A
C409       Br416   1.935       .  S
C410        C411   1.400       .  A
C410       Br415   1.926       .  S
C411        C412   1.411       .  A
C412       Br413   1.923       .  S
O417       Cr435   2.012       .  S
O417        C425   1.271       .  A
O418       Cr435   1.933       .  S
O418        C419   1.245       .  A
C419        O420   1.280       .  A
C419        C774   1.498       .  S
O420       Cr436   2.065       .  S
O421       Cr436   2.036       .  S
O421        C422   1.274       .  A
C422        O423   1.256       .  A
C422        C807   1.499       .  S
O423       Cr437   1.985       .  S
O424       Cr437   1.955       .  S
O424        C425   1.260       .  A
C425        C827   1.468       .  S
O426       Cr435   1.940       .  S
O426        C434   1.243       .  A
O427       Cr435   2.018       .  S
C428        O429   1.250   1_556  A
C428        C814   1.475       .  S
O430       Cr436   2.025       .  S
O430        C431   1.276       .  A
C431        O432   1.264       .  A
C431        C797   1.469       .  S
O432       Cr437   1.960       .  S
O433       Cr437   2.025       .  S
O433        C434   1.259       .  A
C434        C787   1.469       .  S
Cr435       O438   1.773       .  S
Cr436       O438   1.779       .  S
Cr437       O438   1.776       .  S
O439       Cr457   2.062       .  S
O439        C447   1.292       .  A
O440       Cr457   1.945       .  S
O440        C441   1.249       .  A
C441        O442   1.283       .  A
C441        C724   1.529       .  S
O442       Cr458   2.069       .  S
O443       Cr458   2.013       .  S
O443        C444   1.253       .  A
C444        O445   1.247       .  A
C444        C804   1.490       .  S
O445       Cr459   1.990       .  S
O446       Cr459   1.942       .  S
O446        C447   1.269       .  A
C447        C754   1.474       .  S
O448       Cr457   1.965       .  S
O448        C456   1.241       .  A
O449       Cr457   1.996       .  S
O449        C450   1.265       .  A
C450        O451   1.257       .  A
C450        C744   1.492       .  S
O451       Cr458   1.987       .  S
O452       Cr458   2.085       .  S
O452        C453   1.302       .  A
C453        O454   1.274       .  A
C453        C764   1.487       .  S
O454       Cr459   1.957       .  S
O455       Cr459   2.018       .  S
O455        C456   1.249       .  A
C456        C737   1.478       .  S
Cr457       O460   1.751       .  S
Cr458       O460   1.756       .  S
Cr459       O460   1.776       .  S
O461       Cr479   1.947       .  S
O461        C469   1.270       .  A
O462       Cr479   1.962       .  S
O462        C463   1.246       .  A
C463        O464   1.268       .  A
C463        C694   1.514       .  S
O464       Cr480   2.042       .  S
O465       Cr480   2.047       .  S
O465        C466   1.275       .  A
C466        O467   1.258       .  A
C466        C677   1.510       .  S
O467       Cr481   1.978       .  S
O468       Cr481   2.043       .  S
O468        C469   1.287       .  A
C469        C717   1.486       .  S
O470       Cr479   2.007       .  S
O470        C478   1.246       .  A
O471       Cr479   1.982       .  S
O471        C472   1.282       .  A
C472        O473   1.278       .  A
C472        C734   1.505       .  S
O473       Cr480   2.028       .  S
O474       Cr480   1.985       .  S
O474        C475   1.261       .  A
C475        O476   1.264       .  A
C475        C704   1.493       .  S
O476       Cr481   1.989       .  S
O477       Cr481   1.981       .  S
O477        C478   1.244       .  A
C478        C684   1.496       .  S
Cr479       O482   1.774       .  S
Cr480       O482   1.783       .  S
Cr481       O482   1.769       .  S
O483       Cr501   2.021       .  S
O483        C491   1.271       .  A
O484       Cr501   1.963       .  S
O484        C485   1.258       .  A
C485        O486   1.266       .  A
C485        C697   1.510       .  S
O486       Cr502   2.031       .  S
O487       Cr502   2.060       .  S
O487        C488   1.280       .  A
C488        O489   1.249       .  A
C488        C654   1.515       .  S
O489       Cr503   1.973       .  S
O490       Cr503   1.990       .  S
O490        C491   1.262       .  A
C491        C747   1.488       .  S
O492       Cr501   1.978       .  S
O492        C500   1.249       .  A
O493       Cr501   1.997       .  S
O493        C494   1.263       .  A
C494        O495   1.269       .  A
C494        C667   1.499       .  S
O495       Cr502   2.002       .  S
O496        C497   1.270       .  A
C497        O498   1.272       .  A
C497        C757   1.492       .  S
O499       Cr503   2.001       .  S
O499        C500   1.256       .  A
C500        C794   1.476       .  S
Cr501       O504   1.775       .  S
Cr502       O504   1.773       .  S
Cr503       O504   1.772       .  S
O505       Cr523   1.970       .  S
O505        C513   1.269       .  A
O506       Cr523   1.955       .  S
O506        C507   1.237       .  A
C507        O508   1.273       .  A
C507        C777   1.504       .  S
O508       Cr524   2.069       .  S
O509       Cr524   2.031       .  S
O509        C510   1.272       .  A
C510        O511   1.264       .  A
C510        C644   1.511       .  S
O511       Cr525   1.986       .  S
O512       Cr525   2.033       .  S
O512        C513   1.284       .  A
C513        C707   1.471       .  S
O514       Cr523   1.988       .  S
O514        C522   1.239       .  A
O515       Cr523   1.981       .  S
C516        O517   1.280       .  A
C516        C714   1.479       .  S
O518       Cr524   2.015       .  S
O518        C519   1.269       .  A
C519        O520   1.257       .  A
C519        C637   1.485       .  S
O520       Cr525   1.952       .  S
O521       Cr525   1.994       .  S
O521        C522   1.245       .  A
C522        C664   1.501       .  S
Cr523       O526   1.772       .  S
Cr524       O526   1.773       .  S
Cr525       O526   1.753       .  S
O527       Cr545   1.949       .  S
O527        C535   1.275       .  A
O528       Cr545   1.966       .  S
O528        C529   1.241       .  A
C529        O530   1.277       .  A
C529        C727   1.520       .  S
O530       Cr546   2.071       .  S
O531       Cr546   2.071       .  S
O531        C532   1.283       .  A
C532        O533   1.260       .  A
C532        C647   1.525       .  S
O533       Cr547   1.973       .  S
O534       Cr547   2.051       .  S
O534        C535   1.292       .  A
C535        C624   1.478       .  S
O536       Cr545   1.986       .  S
O536        C544   1.236       .  A
O537       Cr545   1.966       .  S
O537        C538   1.274       .  A
C538        O539   1.283       .  A
C538        C617   1.502       .  S
O539       Cr546   2.037       .  S
O540       Cr546   2.012       .  S
O540        C541   1.267       .  A
C541        O542   1.265       .  A
C541        C687   1.495       .  S
O542       Cr547   1.974       .  S
O543       Cr547   1.991       .  S
O543        C544   1.243       .  A
C544        C607   1.495       .  S
Cr545       O548   1.767       .  S
Cr546       O548   1.763       .  S
Cr547       O548   1.745       .  S
O549       Cr567   1.948       .  S
O549        C557   1.255       .  A
O550       Cr567   2.006       .  S
O550        C551   1.266       .  A
C551        O552   1.272       .  A
C551        C594   1.499       .  S
O552       Cr568   2.011       .  S
O553       Cr568   2.072       .  S
O553        C554   1.279       .  A
C554        O555   1.244       .  A
C554        C657   1.508       .  S
O555       Cr569   1.948       .  S
O556       Cr569   2.018       .  S
O556        C557   1.272       .  A
C557        C614   1.504       .  S
O558       Cr567   2.015       .  S
O558        C566   1.261       .  A
O559       Cr567   1.948       .  S
O559        C560   1.253       .  A
C560        O561   1.277       .  A
C560        C784   1.497   1_556  S
O561       Cr568   2.043       .  S
O562        C563   1.249       .  A
C563        O564   1.271       .  A
C563        C627   1.471       .  S
O565       Cr569   1.961       .  S
O565        C566   1.249       .  A
C566        C634   1.474       .  S
Cr567       O570   1.762       .  S
Cr568       O570   1.771       .  S
Cr569       O570   1.761       .  S
O571       Cr589   1.923       .  S
O571        C579   1.257       .  A
O572       Cr589   2.009       .  S
O572        C573   1.264       .  A
C573        O574   1.268       .  A
C573        C597   1.489       .  S
O574       Cr590   2.011       .  S
O575       Cr590   2.079       .  S
O575        C576   1.282       .  A
C576        O577   1.253       .  A
C576        C674   1.518       .  S
O577       Cr591   1.969       .  S
O578       Cr591   2.047       .  S
O578        C579   1.279       .  A
C579        C817   1.482       .  S
O580       Cr589   2.021       .  S
O580        C588   1.261       .  A
O581       Cr589   1.934       .  S
O581        C582   1.250       .  A
C582        O583   1.282       .  A
C582        C604   1.513       .  S
O583       Cr590   2.066       .  S
O584       Cr590   1.921       .  S
O584        C585   1.244       .  A
C585        O586   1.275       .  A
C585        C824   1.494       .  S
O586       Cr591   2.032       .  S
O587       Cr591   1.971       .  S
O587        C588   1.249       .  A
C588        C767   1.491       .  S
Cr589       O592   1.758       .  S
Cr590       O592   1.769       .  S
Cr591       O592   1.769       .  S
C593        C594   1.409       .  A
C593        C598   1.417       .  A
C593       Br600   1.928       .  S
C594        C595   1.421       .  A
C595        C596   1.411       .  A
C595       Br602   1.927       .  S
C596        C597   1.402       .  A
C596       Br601   1.927       .  S
C597        C598   1.413       .  A
C598       Br599   1.916       .  S
C603        C604   1.437       .  A
C603        C608   1.408       .  A
C603       Br610   1.948       .  S
C604        C605   1.422       .  A
C605        C606   1.414       .  A
C605       Br612   1.931       .  S
C606        C607   1.418       .  A
C606       Br611   1.939       .  S
C607        C608   1.408       .  A
C608       Br609   1.945       .  S
C613        C614   1.418       .  A
C613        C618   1.411       .  A
C613       Br620   1.940       .  S
C614        C615   1.426       .  A
C615        C616   1.409       .  A
C615       Br622   1.943       .  S
C616        C617   1.418       .  A
C616       Br621   1.945       .  S
C617        C618   1.423       .  A
C618       Br619   1.940       .  S
C623        C624   1.409       .  A
C623        C628   1.403       .  A
C623       Br630   1.933       .  S
C624        C625   1.411       .  A
C625        C626   1.404       .  A
C625       Br632   1.912       .  S
C626        C627   1.404       .  A
C626       Br631   1.930       .  S
C627        C628   1.414       .  A
C628       Br629   1.935       .  S
C633        C634   1.404       .  A
C633        C638   1.411       .  A
C633       Br640   1.930       .  S
C635        C636   1.402       .  A
C635       Br642   1.933       .  S
C636        C637   1.418       .  A
C636       Br641   1.940       .  S
C638       Br639   1.927       .  S
C643        C644   1.402       .  A
C643        C648   1.409       .  A
C643       Br650   1.930       .  S
C644        C645   1.424       .  A
C645        C646   1.435       .  A
C645       Br652   1.925       .  S
C646        C647   1.418       .  A
C646       Br651   1.925       .  S
C647        C648   1.419       .  A
C648       Br649   1.902       .  S
C653        C654   1.410       .  A
C653        C658   1.422   1_655  A
C653       Br660   1.932       .  S
C654        C655   1.434       .  A
C655        C656   1.414   1_655  A
C655       Br662   1.929       .  S
C656        C657   1.401       .  A
C656       Br661   1.935       .  S
C657        C658   1.431       .  A
C658       Br659   1.936       .  S
C663        C664   1.411       .  A
C663        C668   1.407       .  A
C663       Br670   1.940       .  S
C665        C666   1.412       .  A
C665       Br672   1.937       .  S
C666        C667   1.411   1_554  A
C666       Br671   1.931   1_554  S
C668       Br669   1.920       .  S
C673        C674   1.416       .  A
C673        C678   1.414   1_565  A
C673       Br680   1.922       .  S
C674        C675   1.424       .  A
C675        C676   1.430   1_565  A
C675       Br682   1.925       .  S
C676        C677   1.413       .  A
C676       Br681   1.924       .  S
C677        C678   1.409       .  A
C678       Br679   1.926       .  S
C683        C684   1.415       .  A
C683        C688   1.410       .  A
C683       Br690   1.927       .  S
C684        C685   1.419       .  A
C685        C686   1.414       .  A
C685       Br692   1.933       .  S
C686        C687   1.413       .  A
C686       Br691   1.932       .  S
C687        C688   1.409       .  A
C688       Br689   1.932       .  S
C693        C694   1.416       .  A
C693        C698   1.426       .  A
C693       Br700   1.927       .  S
C694        C695   1.427       .  A
C695        C696   1.405       .  A
C695       Br702   1.927       .  S
C696        C697   1.406       .  A
C696       Br701   1.934       .  S
C697        C698   1.420       .  A
C698       Br699   1.922       .  S
C703        C704   1.415       .  A
C703        C708   1.411       .  A
C703       Br710   1.929       .  S
C704        C705   1.420       .  A
C705        C706   1.405       .  A
C705       Br712   1.921       .  S
C706        C707   1.401       .  A
C706       Br711   1.933       .  S
C707        C708   1.408       .  A
C708       Br709   1.930       .  S
C713        C714   1.415       .  A
C713        C718   1.409       .  A
C713       Br720   1.934       .  S
C714        C715   1.411       .  A
C715        C716   1.405       .  A
C715       Br722   1.933       .  S
C716        C717   1.416       .  A
C716       Br721   1.937       .  S
C717        C718   1.413       .  A
C718       Br719   1.932       .  S
C723        C724   1.437       .  A
C723        C728   1.417       .  A
C723       Br730   1.938       .  S
C724        C725   1.412       .  A
C725        C726   1.426   1_655  A
C725       Br732   1.933       .  S
C726        C727   1.435       .  A
C726       Br731   1.936       .  S
C727        C728   1.405   1_455  A
C728       Br729   1.932   1_655  S
C733        C734   1.419       .  A
C733        C738   1.411       .  A
C733       Br740   1.933       .  S
C734        C735   1.431       .  A
C735        C736   1.409       .  A
C735       Br742   1.942       .  S
C736        C737   1.406       .  A
C736       Br741   1.939       .  S
C737        C738   1.405       .  A
C738       Br739   1.928       .  S
C743        C744   1.419       .  A
C743        C748   1.414       .  A
C743       Br750   1.933       .  S
C744        C745   1.409       .  A
C745        C746   1.409       .  A
C745       Br752   1.933       .  S
C746        C747   1.412       .  A
C746       Br751   1.924       .  S
C747        C748   1.407       .  A
C748       Br749   1.923       .  S
C753        C754   1.411       .  A
C753        C758   1.409       .  A
C753       Br760   1.924       .  S
C754        C755   1.400       .  A
C755        C756   1.407       .  A
C755       Br762   1.933       .  S
C756        C757   1.418       .  A
C756       Br761   1.907       .  S
C757        C758   1.408       .  A
C758       Br759   1.929       .  S
C763        C764   1.407       .  A
C763        C768   1.413       .  A
C763       Br770   1.925       .  S
C764        C765   1.412       .  A
C765        C766   1.410       .  A
C765       Br772   1.933       .  S
C766        C767   1.417       .  A
C766       Br771   1.937       .  S
C767        C768   1.415       .  A
C768       Br769   1.928       .  S
C773        C774   1.400       .  A
C773        C778   1.414   1_565  A
C773       Br780   1.933       .  S
C774        C775   1.428       .  A
C775        C776   1.417       .  A
C775       Br782   1.934       .  S
C776        C777   1.407   1_565  A
C776       Br781   1.932   1_565  S
C777        C778   1.431       .  A
C778       Br779   1.925       .  S
C783        C788   1.407       .  A
C783       Br790   1.940       .  S
C785        C786   1.403       .  A
C786        C787   1.408       .  A
C786       Br791   1.922       .  S
C787        C788   1.402       .  A
C788       Br789   1.930       .  S
C793        C794   1.403       .  A
C793        C798   1.405       .  A
C793       Br800   1.926       .  S
C795        C796   1.405       .  A
C795       Br802   1.928       .  S
C796        C797   1.409       .  A
C796       Br801   1.933       .  S
C798       Br799   1.919       .  S
C803        C804   1.408       .  A
C803        C808   1.412       .  A
C803       Br810   1.929       .  S
C804        C805   1.407       .  A
C805        C806   1.417       .  A
C805       Br812   1.923       .  S
C806        C807   1.417       .  A
C806       Br811   1.923       .  S
C807        C808   1.412       .  A
C808       Br809   1.907       .  S
C813        C814   1.409       .  A
C813        C818   1.401       .  A
C813       Br820   1.925       .  S
C814        C815   1.413       .  A
C815        C816   1.413       .  A
C815       Br822   1.927       .  S
C816        C817   1.410       .  A
C816       Br821   1.928       .  S
C817        C818   1.413       .  A
C818       Br819   1.940       .  S
C823        C824   1.413       .  A
C823        C828   1.406       .  A
C823       Br830   1.928       .  S
C824        C825   1.429       .  A
C825        C826   1.399       .  A
C825       Br832   1.930       .  S
C826        C827   1.396       .  A
C826       Br831   1.925       .  S
C827        C828   1.406       .  A
C828       Br829   1.925       .  S
