geometry optimzed in LAMMPS
_audit_creation_date              2020-11-30 
_audit_creation_method            'lammps2cif' 
_symmetry_space_group_name_H-M    'P1' 
_symmetry_Int_Tables_number       1 
_symmetry_cell_setting            triclinic 
loop_ 
_symmetry_equiv_pos_as_xyz 
  x,y,z 
_cell_length_a                    34.41471863 
_cell_length_b                    33.8521853726231 
_cell_length_c                    40.16539662504564 
_cell_angle_alpha                 90.17441360257946 
_cell_angle_beta                  89.78999001140438 
_cell_angle_gamma                 121.21521965716798 
loop_ 
_atom_site_label 
_atom_site_type_symbol 
_atom_site_fract_x 
_atom_site_fract_y 
_atom_site_fract_z 
_atom_site_charge 
In1        In  0.20964846  0.44017574  0.27744646     1.36900
C2          C  0.22356261  0.43919156  0.34227677     0.79300
O3          O  0.18936381  0.36687068  0.28260701    -0.59200
O4          O  0.25350207  0.41385410  0.26015890    -0.50100
C5          C  0.14917025  0.41666115  0.22926317     0.71900
O6          O  0.13804550  0.41544591  0.25962573    -0.45000
C7          C  0.25789522  0.53034519  0.27082806     0.76600
O8          O  0.18424810  0.42668671  0.33105973    -0.56800
O9          O  0.26956788  0.50383064  0.25805052    -0.46900
O10         O  0.25442674  0.45407092  0.32049889    -0.53200
C11         C  0.22680184  0.37373425  0.27151404     0.86800
O12         O  0.19049974  0.43033699  0.22465334    -0.55100
O13         O  0.21962013  0.51013433  0.28523745    -0.58400
In14       In  0.31355140  0.43949193  0.64827581     1.36900
C15         C  0.30995684  0.44327982  0.58257344     0.79300
O16         O  0.26048212  0.36582116  0.63831346    -0.59200
O17         O  0.24133400  0.40924715  0.66260690    -0.50100
C18         C  0.35195620  0.42075055  0.69843156     0.71900
O19         O  0.36611179  0.42430684  0.66871281    -0.45000
C20         C  0.34914390  0.52903686  0.65573181     0.76600
O21         O  0.33012949  0.42510966  0.59646884    -0.56800
O22         O  0.30957287  0.49978847  0.66585825    -0.46900
O23         O  0.29397260  0.46025340  0.60233783    -0.53200
C24         C  0.22868289  0.37029017  0.64970382     0.86800
O25         O  0.31849680  0.42605437  0.70146857    -0.55100
O26         O  0.37163391  0.51196506  0.64439338    -0.58400
In27       In  0.46254347  0.20644191  0.32679903     1.36900
C28         C  0.46188202  0.22572684  0.26334705     0.79300
O29         O  0.39083557  0.18780058  0.32441992    -0.59200
O30         O  0.44023473  0.25377600  0.34439657    -0.50100
C31         C  0.44129740  0.14747799  0.37600345     0.71900
O32         O  0.43127212  0.13385614  0.34597756    -0.45000
C33         C  0.55059295  0.24227132  0.32862826     0.76600
O34         O  0.44660662  0.18431329  0.27291817    -0.56800
O35         O  0.53108735  0.26104170  0.34267715    -0.46900
O36         O  0.47925226  0.25576918  0.28609305    -0.53200
C37         C  0.39965422  0.22694841  0.33474016     0.86800
O38         O  0.46134501  0.19067873  0.38016887    -0.55100
O39         O  0.52425891  0.20381608  0.31466964    -0.58400
In40       In  0.47993371  0.30496566  0.95844132     1.36900
C41         C  0.47404827  0.31096389  0.02403923     0.79300
O42         O  0.41116061  0.24294047  0.96798371    -0.59200
O43         O  0.46416770  0.23329340  0.95090603    -0.50100
C44         C  0.45894979  0.33689409  0.90501364     0.71900
O45         O  0.46708585  0.35711210  0.93293716    -0.45000
C46         C  0.56827838  0.33996970  0.95225988     0.76600
O47         O  0.44912551  0.31776509  0.00461131    -0.56800
O48         O  0.53903701  0.30040093  0.94160436    -0.46900
O49         O  0.50274186  0.30449625  0.00957391    -0.53200
C50         C  0.42391807  0.21490127  0.96143818     0.86800
O51         O  0.46107415  0.30095436  0.90523675    -0.55100
O52         O  0.55219785  0.36330210  0.96396610    -0.58400
In53       In  0.24320514  0.79234052  0.99240633     1.36900
C54         C  0.24954380  0.80806460  0.92799248     0.79300
O55         O  0.22961003  0.84935250  0.99539190    -0.59200
O56         O  0.29300471  0.86161393  0.01348535    -0.50100
C57         C  0.17901689  0.74573658  0.03706154     0.71900
O58         O  0.16982073  0.74722963  0.00680338    -0.45000
C59         C  0.28818350  0.74896969  0.98809281     0.76600
O60         O  0.21170557  0.77973002  0.94144468    -0.56800
O61         O  0.30162409  0.78451946  0.00603528    -0.46900
O62         O  0.28253436  0.82804551  0.94777976    -0.53200
C63         C  0.26836769  0.87814575  0.00669767     0.86800
O64         O  0.22088377  0.76715155  0.04369520    -0.55100
O65         O  0.24964222  0.73348932  0.97501532    -0.58400
In66       In  0.31796061  0.86521999  0.61706093     1.36900
C67         C  0.30871113  0.86064504  0.68251196     0.79300
O68         O  0.25886276  0.87445123  0.62207682    -0.59200
O69         O  0.24782041  0.81161679  0.60130010    -0.50100
C70         C  0.35558673  0.93032450  0.57060745     0.71900
O71         O  0.36204830  0.94007899  0.60130555    -0.45000
C72         C  0.35964616  0.81824801  0.61351868     0.76600
O73         O  0.29123885  0.82599513  0.66355869    -0.56800
O74         O  0.32348305  0.80657485  0.59787308    -0.46900
O75         O  0.33339195  0.89901810  0.66784598    -0.53200
C76         C  0.23051686  0.83424852  0.61204565     0.86800
O77         O  0.33094229  0.88785544  0.56431826    -0.55100
O78         O  0.37683711  0.85657689  0.62846571    -0.58400
In79       In  0.89156316  0.28742380  0.97424871     1.36900
C80         C  0.89079528  0.28869076  0.90857370     0.79300
O81         O  0.90629370  0.23170478  0.96374781    -0.59200
O82         O  0.84129669  0.21326374  0.98305091    -0.50100
C83         C  0.94570831  0.31891221  0.02680290     0.71900
O84         O  0.95963101  0.33585797  0.99802999    -0.45000
C85         C  0.84313208  0.32648420  0.98272454     0.76600
O86         O  0.92813750  0.30673268  0.92439893    -0.56800
O87         O  0.82980737  0.28576744  0.99209389    -0.46900
O88         O  0.85592604  0.27333199  0.92660173    -0.53200
C89         C  0.86657100  0.19975994  0.97121599     0.86800
O90         O  0.90486314  0.28634115  0.02788512    -0.55100
O91         O  0.88297527  0.34844938  0.97084987    -0.58400
In92       In  0.81456574  0.17935704  0.60321252     1.36900
C93         C  0.82712344  0.19557182  0.66775898     0.79300
O94         O  0.86791405  0.16139273  0.61152344    -0.59200
O95         O  0.88608399  0.22422355  0.58666360    -0.50100
C96         C  0.77567154  0.11593084  0.55549924     0.71900
O97         O  0.76527555  0.10565316  0.58594246    -0.45000
C98         C  0.77638146  0.22964846  0.59748262     0.76600
O99         O  0.79884125  0.15516183  0.65696523    -0.56800
O100        O  0.81291691  0.23964844  0.58274558    -0.46900
O101        O  0.84703659  0.22561123  0.64543362    -0.53200
C102        C  0.89930893  0.19898675  0.59935850     0.86800
O103        O  0.80450633  0.15797227  0.55036826    -0.55100
O104        O  0.75734648  0.19156507  0.61286715    -0.58400
In105      In  0.63625941  0.84580390  0.30282891     1.36900
C106        C  0.63969737  0.85278214  0.23695509     0.79300
O107        O  0.70257272  0.85203001  0.29171470    -0.59200
O108        O  0.64847324  0.78714000  0.30889304    -0.50100
C109        C  0.66287872  0.90317460  0.35509085     0.71900
O110        O  0.65842954  0.91544221  0.32633111    -0.45000
C111        C  0.54728314  0.80074167  0.31063739     0.76600
O112        O  0.66610141  0.88684658  0.25529455    -0.56800
O113        O  0.57139634  0.78476957  0.32034436    -0.46900
O114        O  0.60989695  0.81790635  0.25256526    -0.53200
C115        C  0.68806857  0.80983992  0.29665985     0.86800
O116        O  0.65516206  0.86248829  0.35633373    -0.55100
O117        O  0.56937414  0.84107895  0.29870961    -0.58400
In118      In  0.64634919  0.77850878  0.92805442     1.36900
C119        C  0.65756597  0.79101930  0.99388594     0.79300
O120        O  0.71728145  0.83829222  0.92351003    -0.59200
O121        O  0.66315296  0.84779913  0.90939739    -0.50100
C122        C  0.66697590  0.73493839  0.88195627     0.71900
O123        O  0.67976386  0.73824399  0.91187582    -0.45000
C124        C  0.55673223  0.74016736  0.92606450     0.76600
O125        O  0.65302667  0.75510244  0.98009986    -0.56800
O126        O  0.58394532  0.77722927  0.91122330    -0.46900
O127        O  0.65588921  0.81873661  0.97411404    -0.53200
C128        C  0.70526085  0.86611287  0.91447648     0.86800
O129        O  0.64356185  0.75298135  0.87657637    -0.55100
O130        O  0.57550690  0.72137358  0.94061661    -0.58400
In131      In  0.80847521  0.61037924  0.63286393     1.36900
C132        C  0.81190368  0.62951187  0.56808897     0.79300
O133        O  0.86988919  0.67981477  0.64232434    -0.59200
O134        O  0.87506587  0.62038724  0.64828598    -0.50100
C135        C  0.76646452  0.62743688  0.68227500     0.71900
O136        O  0.77564819  0.64802318  0.65466897    -0.45000
C137        C  0.77847276  0.52028650  0.62880875     0.76600
O138        O  0.77498943  0.61011715  0.58426636    -0.56800
O139        O  0.81305900  0.54866222  0.64518238    -0.46900
O140        O  0.84657087  0.64123768  0.58536449    -0.53200
C141        C  0.89516792  0.66390322  0.64832965     0.86800
O142        O  0.77618518  0.59647521  0.68357522    -0.55100
O143        O  0.75832203  0.53795343  0.61469520    -0.58400
In144      In  0.87672346  0.59066098  0.26194068     1.36900
C145        C  0.86693397  0.60506746  0.32588080     0.79300
O146        O  0.88472507  0.65909222  0.25224251    -0.59200
O147        O  0.82368496  0.59902427  0.23665024    -0.50100
C148        C  0.94540477  0.61459676  0.22014320     0.71900
O149        O  0.95161155  0.63041745  0.24947863    -0.45000
C150        C  0.83233160  0.49991357  0.26610735     0.76600
O151        O  0.83601118  0.59150822  0.30445930    -0.56800
O152        O  0.82056615  0.52131504  0.24689423    -0.46900
O153        O  0.90416278  0.61121652  0.31460019    -0.53200
C154        C  0.84536353  0.64235285  0.24031932     0.86800
O155        O  0.90463325  0.58541847  0.21324168    -0.55100
O156        O  0.86936435  0.52517026  0.28118671    -0.58400
C157        C  0.81004497  0.61776314  0.40293186     0.14300
C158        C  0.84254903  0.62785969  0.42768226     0.01300
C159        C  0.88366488  0.63095370  0.41887422     0.16300
C160        C  0.89190804  0.62364250  0.38584494     0.25700
C161        C  0.85913649  0.61312537  0.36102951    -0.40600
C162        C  0.81799078  0.61014722  0.37008696     0.32700
C163        C  0.83187492  0.63149062  0.46299130     0.01400
F164        F  0.91515687  0.63937180  0.44251142    -0.12900
F165        F  0.78496894  0.59952677  0.34724932    -0.13500
C166        C  0.79387724  0.59393623  0.47826769     0.16300
C167        C  0.78505010  0.59537292  0.51209055     0.25700
C168        C  0.81475456  0.63380694  0.53150930    -0.40600
C169        C  0.85177130  0.67228855  0.51605180     0.32700
C170        C  0.86003249  0.67128893  0.48192684     0.14400
F171        F  0.76696788  0.55452081  0.46089700    -0.12900
F172        F  0.88046462  0.71035803  0.53414824    -0.13500
F173        F  0.74975597  0.55742368  0.52651106    -0.15700
F174        F  0.89601085  0.70868615  0.46752137    -0.14300
F175        F  0.77029097  0.61508812  0.41066201    -0.14300
F176        F  0.93141447  0.62569316  0.37840320    -0.15700
C177        C  0.66788009  0.68613409  0.79711559     0.14300
C178        C  0.70511417  0.68015243  0.79941545     0.01300
C179        C  0.72816524  0.68895746  0.82993611     0.16300
C180        C  0.71511046  0.70534370  0.85741358     0.25700
C181        C  0.67869533  0.71301516  0.85470128    -0.40600
C182        C  0.65466614  0.70217173  0.82438933     0.32700
C183        C  0.72046944  0.66629764  0.76942342     0.01400
F184        F  0.76427475  0.68325582  0.83271148    -0.12900
F185        F  0.61832929  0.70735987  0.82094889    -0.13500
C186        C  0.73946236  0.69679690  0.74237247     0.16300
C187        C  0.75351373  0.68386240  0.71372582     0.25700
C188        C  0.74812286  0.63977650  0.71137196    -0.40600
C189        C  0.72815302  0.60891289  0.73828633     0.32700
C190        C  0.71472820  0.62220590  0.76711513     0.14400
F191        F  0.74525299  0.73960093  0.74402873    -0.12900
F192        F  0.72129074  0.56567236  0.73665130    -0.13500
F193        F  0.77397347  0.71516314  0.68886519    -0.15700
F194        F  0.69547251  0.59179282  0.79262291    -0.14300
F195        F  0.64437019  0.67664740  0.76817740    -0.14300
F196        F  0.73918995  0.71535016  0.88611327    -0.15700
C197        C  0.82770376  0.74239907  0.24842749     0.14300
C198        C  0.78011198  0.71953166  0.24704703     0.01300
C199        C  0.75528508  0.67340746  0.23621982     0.16300
C200        C  0.77728382  0.64903744  0.23035372     0.25700
C201        C  0.82447385  0.67056510  0.23544075    -0.40600
C202        C  0.84977332  0.71821385  0.24243766     0.32700
C203        C  0.75644096  0.74259718  0.25971052     0.01400
F204        F  0.70945166  0.65138413  0.23286100    -0.12900
F205        F  0.89561974  0.74078215  0.24592262    -0.13500
C206        C  0.76535096  0.78448682  0.24590977     0.16300
C207        C  0.74446003  0.80721068  0.25893719     0.25700
C208        C  0.71382576  0.78814443  0.28587405    -0.40600
C209        C  0.70497597  0.74617601  0.29971383     0.32700
C210        C  0.72639026  0.72376686  0.28689126     0.14400
F211        F  0.79353001  0.80284737  0.21925890    -0.12900
F212        F  0.67590268  0.72700871  0.32579574    -0.13500
F213        F  0.75273290  0.84686771  0.24414749    -0.15700
F214        F  0.71840062  0.68401393  0.30136711    -0.14300
F215        F  0.85261067  0.78725838  0.25815373    -0.14300
F216        F  0.75189328  0.60360894  0.22211637    -0.15700
C217        C  0.68493692  0.85811597  0.07443322     0.14300
C218        C  0.66248298  0.82281251  0.09814038     0.01300
C219        C  0.64313934  0.77646986  0.08766440     0.16300
C220        C  0.64324441  0.76567289  0.05390541     0.25700
C221        C  0.66352428  0.80104063  0.03008744    -0.40600
C222        C  0.68585628  0.84735213  0.04092018     0.32700
C223        C  0.65662654  0.83394726  0.13313402     0.01400
F224        F  0.62310675  0.74147747  0.11006768    -0.12900
F225        F  0.70765924  0.88250583  0.01878931    -0.13500
C226        C  0.61324023  0.81085391  0.14792387     0.16300
C227        C  0.60754295  0.81835344  0.18133420     0.25700
C228        C  0.64467601  0.85110738  0.20040388    -0.40600
C229        C  0.68755852  0.87665579  0.18509003     0.32700
C230        C  0.69370713  0.86752357  0.15198688     0.14400
F231        F  0.57608267  0.78069425  0.13000783    -0.12900
F232        F  0.72420302  0.90826549  0.20277917    -0.13500
F233        F  0.56564681  0.79265824  0.19523510    -0.15700
F234        F  0.73631329  0.88996017  0.13897762    -0.14300
F235        F  0.70388602  0.90315548  0.08325038    -0.14300
F236        F  0.62117748  0.72067664  0.04438763    -0.15700
C237        C  0.76605992  0.33318159  0.57922254     0.14300
C238        C  0.74608693  0.33680040  0.60880496     0.01300
C239        C  0.72999041  0.30094893  0.63233887     0.16300
C240        C  0.73646374  0.26374310  0.62735759     0.25700
C241        C  0.75985743  0.26221458  0.59899040    -0.40600
C242        C  0.77313356  0.29642489  0.57447181     0.32700
C243        C  0.74746791  0.38049065  0.61657231     0.01400
F244        F  0.70978557  0.30302461  0.66084899    -0.12900
F245        F  0.79479369  0.29537560  0.54646793    -0.13500
C246        C  0.72916636  0.39876625  0.59445873     0.16300
C247        C  0.73741265  0.44358454  0.59907427     0.25700
C248        C  0.76409770  0.47083680  0.62597937    -0.40600
C249        C  0.77983086  0.45128375  0.64921403     0.32700
C250        C  0.77170830  0.40669935  0.64453448     0.14400
F251        F  0.70435451  0.37361136  0.56785445    -0.12900
F252        F  0.80413223  0.47576151  0.67620648    -0.13500
F253        F  0.72129207  0.46104292  0.57626917    -0.15700
F254        F  0.78987543  0.39021159  0.66642217    -0.14300
F255        F  0.78178969  0.36703356  0.55591118    -0.14300
F256        F  0.72296678  0.23119855  0.65152240    -0.15700
C257        C  0.76310135  0.06344091  0.46966038     0.14300
C258        C  0.72098505  0.02198911  0.47192883     0.01300
C259        C  0.69720159  0.01049007  0.50239538     0.16300
C260        C  0.71494702  0.04041438  0.52993646     0.25700
C261        C  0.75679238  0.08242428  0.52739851    -0.40600
C262        C  0.78073663  0.09329198  0.49695874     0.32700
C263        C  0.70297246  0.99057243  0.44260038     0.01400
F264        F  0.65632682  0.97067477  0.50524968    -0.12900
F265        F  0.82191911  0.13266821  0.49364320    -0.13500
C266        C  0.69658701  0.94616059  0.44416112     0.16300
C267        C  0.68300589  0.91776302  0.41591460     0.25700
C268        C  0.67583323  0.93320420  0.38524564    -0.40600
C269        C  0.68100705  0.97733438  0.38397635     0.32700
C270        C  0.69450426  0.00566379  0.41237790     0.14400
F271        F  0.70513106  0.93087834  0.47281107    -0.12900
F272        F  0.67307052  0.99315356  0.35534695    -0.13500
F273        F  0.67764127  0.87523320  0.41866374    -0.15700
F274        F  0.69930177  0.04801832  0.41037651    -0.14300
F275        F  0.78777881  0.07459753  0.44108753    -0.14300
F276        F  0.69066868  0.02888822  0.55868722    -0.15700
C277        C  0.80196582  0.98333236  0.93948064     0.14300
C278        C  0.78694770  0.01190912  0.92748701     0.01300
C279        C  0.74863328  0.99341562  0.90679146     0.16300
C280        C  0.72381858  0.94603076  0.89996981     0.25700
C281        C  0.73686179  0.91661781  0.91413577    -0.40600
C282        C  0.77713577  0.93603508  0.93296867     0.32700
C283        C  0.80857626  0.05974226  0.93961551     0.01400
F284        F  0.73430430  0.02097873  0.89434787    -0.12900
F285        F  0.79053192  0.90891482  0.94755858    -0.13500
C286        C  0.85289332  0.09288213  0.92985578     0.16300
C287        C  0.87329395  0.13812008  0.94185876     0.25700
C288        C  0.84938468  0.15068630  0.96381537    -0.40600
C289        C  0.80594521  0.11652508  0.97496865     0.32700
C290        C  0.78559584  0.07152777  0.96273834     0.14400
F291        F  0.87580878  0.08165382  0.90795177    -0.12900
F292        F  0.78274861  0.12677410  0.99732821    -0.13500
F293        F  0.91557472  0.16984757  0.93089022    -0.15700
F294        F  0.74336825  0.03929924  0.97349577    -0.14300
F295        F  0.83886776  0.00079426  0.95962486    -0.14300
F296        F  0.68599452  0.92872239  0.88080907    -0.15700
C297        C  0.90949858  0.26395854  0.81984761     0.14300
C298        C  0.86764945  0.25205120  0.80541899     0.01300
C299        C  0.83599383  0.25721075  0.82389351     0.16300
C300        C  0.84518455  0.27238185  0.85683649     0.25700
C301        C  0.88616765  0.28225625  0.87207166    -0.40600
C302        C  0.91875204  0.27894751  0.85301880     0.32700
C303        C  0.85770614  0.23631598  0.77053347     0.01400
F304        F  0.79600236  0.24732609  0.80999979    -0.12900
F305        F  0.95837115  0.28774906  0.86690760    -0.13500
C306        C  0.82435108  0.19052247  0.76257968     0.16300
C307        C  0.81442586  0.17653664  0.72919039     0.25700
C308        C  0.83737471  0.20848927  0.70338879    -0.40600
C309        C  0.87082998  0.25441470  0.71182748     0.32700
C310        C  0.88074909  0.26799011  0.74498610     0.14400
F311        F  0.80147774  0.15949094  0.78718678    -0.12900
F312        F  0.89404406  0.28677542  0.68804807    -0.13500
F313        F  0.78225537  0.13207024  0.72221640    -0.15700
F314        F  0.91219801  0.31264594  0.75223240    -0.14300
F315        F  0.94065009  0.25949474  0.80207635    -0.14300
F316        F  0.81340714  0.27647032  0.87407272    -0.15700
C317        C  0.10432172  0.74771566  0.61042226     0.14300
C318        C  0.08806989  0.76867123  0.63211126     0.01300
C319        C  0.11835332  0.81300921  0.64459632     0.16300
C320        C  0.16431358  0.83565550  0.63619412     0.25700
C321        C  0.18107093  0.81384268  0.61574240    -0.40600
C322        C  0.15048388  0.76987455  0.60257741     0.32700
C323        C  0.03950900  0.74422139  0.64147594     0.01400
F324        F  0.10379610  0.83369020  0.66610332    -0.12900
F325        F  0.16525295  0.74778154  0.58266821    -0.13500
C326        C  0.01811982  0.69902912  0.65413130     0.16300
C327        C  0.97113798  0.67364716  0.65872363     0.25700
C328        C  0.94491261  0.69344696  0.65142102    -0.40600
C329        C  0.96699470  0.74022685  0.64200545     0.32700
C330        C  0.01379532  0.76509301  0.63642583     0.14400
F331        F  0.04257916  0.67893536  0.66104646    -0.12900
F332        F  0.94308405  0.76115351  0.63601949    -0.13500
F333        F  0.95121615  0.62906462  0.66892573    -0.15700
F334        F  0.03344471  0.80858470  0.62399601    -0.14300
F335        F  0.07546307  0.70559193  0.59693355    -0.14300
F336        F  0.19264255  0.87800797  0.64952588    -0.15700
C337        C  0.06627245  0.68763735  0.08306696     0.14300
C338        C  0.07958465  0.68241715  0.11503537     0.01300
C339        C  0.12503276  0.69586871  0.12061186     0.16300
C340        C  0.15698868  0.71550855  0.09503429     0.25700
C341        C  0.14414090  0.72194950  0.06320620    -0.40600
C342        C  0.09826801  0.70728785  0.05732223     0.32700
C343        C  0.04649202  0.66393974  0.14284310     0.01400
F344        F  0.13844884  0.68973443  0.15091251    -0.12900
F345        F  0.08458919  0.71322485  0.02705538    -0.13500
C346        C  0.00713909  0.61997751  0.14050063     0.16300
C347        C  0.97514329  0.60324033  0.16626340     0.25700
C348        C  0.98198598  0.63009849  0.19497942    -0.40600
C349        C  0.02222873  0.67350481  0.19779081     0.32700
C350        C  0.05405040  0.69035659  0.17184420     0.14400
F351        F  0.99973711  0.59319571  0.11322303    -0.12900
F352        F  0.02987328  0.70060997  0.22490372    -0.13500
F353        F  0.93728318  0.56070908  0.16297780    -0.15700
F354        F  0.09151029  0.73331207  0.17449987    -0.14300
F355        F  0.02250754  0.67499117  0.07702538    -0.14300
F356        F  0.20067704  0.72833140  0.10161287    -0.15700
C357        C  0.30749127  0.84594752  0.84448062     0.14300
C358        C  0.27132463  0.83681746  0.82352761     0.01300
C359        C  0.22735318  0.81775162  0.83690648     0.16300
C360        C  0.21973948  0.80788615  0.87095813     0.25700
C361        C  0.25613792  0.81729818  0.89197389    -0.40600
C362        C  0.30006618  0.83636949  0.87835375     0.32700
C363        C  0.27932139  0.84397426  0.78738626     0.01400
F364        F  0.19193543  0.80885459  0.81696344    -0.12900
F365        F  0.33581842  0.84442481  0.89761883    -0.13500
C366        C  0.25894510  0.80580549  0.76599154     0.16300
C367        C  0.26868625  0.81139274  0.73204537     0.25700
C368        C  0.29934194  0.85550397  0.71873682    -0.40600
C369        C  0.31970527  0.89383212  0.74030706     0.32700
C370        C  0.30979060  0.88804349  0.77441256     0.14400
F371        F  0.23072645  0.76269474  0.77821513    -0.12900
F372        F  0.34948337  0.93676817  0.72856425    -0.13500
F373        F  0.24820378  0.77323518  0.71236986    -0.15700
F374        F  0.33007185  0.92539173  0.79486028    -0.14300
F375        F  0.34985541  0.86259027  0.83187400    -0.14300
F376        F  0.17706521  0.78974438  0.88335504    -0.15700
C377        C  0.34241031  0.69376297  0.94009475     0.14300
C378        C  0.38237792  0.70904353  0.95834929     0.01300
C379        C  0.38842813  0.73244071  0.98862138     0.16300
C380        C  0.35613672  0.74273657  0.99960363     0.25700
C381        C  0.31719833  0.72979200  0.98045811    -0.40600
C382        C  0.30987389  0.70383548  0.95110293     0.32700
C383        C  0.42071616  0.70654773  0.94428333     0.01400
F384        F  0.42730293  0.74831888  0.00633529    -0.12900
F385        F  0.27303090  0.69126087  0.93167321    -0.13500
C386        C  0.44487805  0.73460551  0.91706309     0.16300
C387        C  0.48808192  0.74285443  0.90929168     0.25700
C388        C  0.50746390  0.72261674  0.92845760    -0.40600
C389        C  0.48082464  0.69030568  0.95320518     0.32700
C390        C  0.43792173  0.68273700  0.96126156     0.14400
F391        F  0.42832409  0.75719169  0.89983537    -0.12900
F392        F  0.49760032  0.66882721  0.97148945    -0.13500
F393        F  0.51195033  0.77287049  0.88437196    -0.15700
F394        F  0.41435094  0.65447621  0.98706617    -0.14300
F395        F  0.33594809  0.67101061  0.91082506    -0.14300
F396        F  0.36417116  0.76738605  0.02814846    -0.15700
C397        C  0.28101767  0.99284273  0.98700756     0.14300
C398        C  0.32514786  0.02337757  0.99843668     0.01300
C399        C  0.34798999  0.00641314  0.01689876     0.16300
C400        C  0.32808375  0.95898570  0.02190650     0.25700
C401        C  0.28506159  0.92794492  0.00842466    -0.40600
C402        C  0.26096678  0.94548328  0.99204366     0.32700
C403        C  0.34900934  0.07207458  0.98810988     0.01400
F404        F  0.39036887  0.03572931  0.02884808    -0.12900
F405        F  0.21933696  0.91679136  0.97869713    -0.13500
C406        C  0.33250471  0.10078061  0.99717769     0.16300
C407        C  0.35564409  0.14699030  0.98720096     0.25700
C408        C  0.39553176  0.16493821  0.96787678    -0.40600
C409        C  0.41087744  0.13542932  0.95785527     0.32700
C410        C  0.38786686  0.08948198  0.96800108     0.14400
F411        F  0.29480729  0.08436750  0.01652640    -0.12900
F412        F  0.44863396  0.15111297  0.93867576    -0.13500
F413        F  0.33997020  0.17443590  0.99761217    -0.15700
F414        F  0.40350524  0.06179767  0.95809429    -0.14300
F415        F  0.25865499  0.00859620  0.96877418    -0.14300
F416        F  0.35184780  0.94344832  0.03854964    -0.15700
C417        C  0.67791947  0.34365762  0.93610416     0.14300
C418        C  0.70263716  0.36633375  0.96486280     0.01300
C419        C  0.68554315  0.38586591  0.98698400     0.16300
C420        C  0.64323094  0.38106528  0.98115878     0.25700
C421        C  0.61686908  0.35523106  0.95370973    -0.40600
C422        C  0.63509927  0.33765526  0.93076461     0.32700
C423        C  0.74293131  0.36392786  0.97365541     0.01400
F424        F  0.70882040  0.40747615  0.01506969    -0.12900
F425        F  0.61055023  0.31281725  0.90396223    -0.13500
C426        C  0.78254424  0.38652327  0.95421148     0.16300
C427        C  0.81744842  0.37746817  0.95908546     0.25700
C428        C  0.81255698  0.34487782  0.98304977    -0.40600
C429        C  0.77412534  0.32468757  0.00390655     0.32700
C430        C  0.73965990  0.33426769  0.99930118     0.14400
F431        F  0.78635858  0.41558631  0.92948031    -0.12900
F432        F  0.76886064  0.29388301  0.02772420    -0.13500
F433        F  0.85420865  0.39775501  0.93860842    -0.15700
F434        F  0.70155654  0.31197266  0.01833272    -0.14300
F435        F  0.69383076  0.32439508  0.91444993    -0.14300
F436        F  0.62647545  0.39827443  0.00385062    -0.15700
C437        C  0.66721271  0.28196255  0.29423221     0.14300
C438        C  0.69278270  0.32443429  0.31074201     0.01300
C439        C  0.67355119  0.33473582  0.33778024     0.16300
C440        C  0.62778544  0.30552994  0.34566581     0.25700
C441        C  0.60057277  0.26560672  0.32656603    -0.40600
C442        C  0.62129895  0.25255049  0.30210970     0.32700
C443        C  0.73382730  0.36253445  0.29497686     0.01400
F444        F  0.69759597  0.37573038  0.35403399    -0.12900
F445        F  0.59638727  0.21375205  0.28361431    -0.13500
C446        C  0.72875925  0.38046350  0.26493246     0.16300
C447        C  0.76264475  0.42390383  0.25398933     0.25700
C448        C  0.80254992  0.45002625  0.27273819    -0.40600
C449        C  0.80942406  0.43006030  0.30117743     0.32700
C450        C  0.77497662  0.38671523  0.31239696     0.14400
F451        F  0.68889058  0.35803910  0.24799600    -0.12900
F452        F  0.84760623  0.45404905  0.31980186    -0.13500
F453        F  0.75457357  0.44178655  0.22648244    -0.15700
F454        F  0.78041238  0.36984174  0.34149596    -0.14300
F455        F  0.68563797  0.27120120  0.26838914    -0.14300
F456        F  0.60938575  0.31837971  0.37025908    -0.15700
C457        C  0.39253451  0.03936480  0.52073617     0.14300
C458        C  0.40031016  0.02643908  0.48919865     0.01300
C459        C  0.39646168  0.98330066  0.48544912     0.16300
C460        C  0.38308629  0.95274160  0.51226787     0.25700
C461        C  0.37423392  0.96506284  0.54363872    -0.40600
C462        C  0.38004151  0.00907919  0.54786710     0.32700
C463        C  0.41114583  0.05723945  0.45998201     0.01400
F464        F  0.40566665  0.97071228  0.45570230    -0.12900
F465        F  0.37132117  0.02183996  0.57772873    -0.13500
C466        C  0.44967477  0.10199806  0.46010116     0.16300
C467        C  0.45929721  0.13125355  0.43279574     0.25700
C468        C  0.43102400  0.11594406  0.40451060    -0.40600
C469        C  0.39267307  0.07105086  0.40428367     0.32700
C470        C  0.38270172  0.04201888  0.43184009     0.14400
F471        F  0.47849250  0.11711828  0.48645767    -0.12900
F472        F  0.36384745  0.05588841  0.37794678    -0.13500
F473        F  0.49683576  0.17433397  0.43380359    -0.15700
F474        F  0.34456027  0.99938153  0.43142037    -0.14300
F475        F  0.39518391  0.08051860  0.52487462    -0.14300
F476        F  0.37876087  0.91090550  0.50755206    -0.15700
C477        C  0.50152687  0.30260947  0.11336928     0.14300
C478        C  0.45885144  0.28312904  0.12863003     0.01300
C479        C  0.42177171  0.27800887  0.11034051     0.16300
C480        C  0.42700277  0.29013301  0.07647324     0.25700
C481        C  0.46946232  0.30750539  0.06072065    -0.40600
C482        C  0.50685564  0.31472425  0.07981667     0.32700
C483        C  0.45384871  0.26698279  0.16335104     0.01400
F484        F  0.38040537  0.26005021  0.12502428    -0.12900
F485        F  0.54847090  0.33197648  0.06565807    -0.13500
C486        C  0.46989129  0.29916101  0.18936293     0.16300
C487        C  0.47226294  0.28556325  0.22169841     0.25700
C488        C  0.45887391  0.23926116  0.22870528    -0.40600
C489        C  0.44193402  0.20682536  0.20254351     0.32700
C490        C  0.43936991  0.22064981  0.17012309     0.14400
F491        F  0.48445065  0.34418383  0.18321793    -0.12900
F492        F  0.42898604  0.16210787  0.20807565    -0.13500
F493        F  0.48831074  0.31820882  0.24601186    -0.15700
F494        F  0.42441481  0.18921940  0.14502012    -0.14300
F495        F  0.53777806  0.30808733  0.13076406    -0.14300
F496        F  0.39006495  0.28194992  0.05869855    -0.15700
C497        C  0.40546707  0.75041188  0.65374404     0.14300
C498        C  0.38982057  0.71307381  0.63163330     0.01300
C499        C  0.37120641  0.71457094  0.60095154     0.16300
C500        C  0.36455296  0.75097395  0.59373850     0.25700
C501        C  0.37719910  0.78686465  0.61688373    -0.40600
C502        C  0.39972071  0.78740390  0.64626829     0.32700
C503        C  0.38642818  0.66966904  0.64216355     0.01400
F504        F  0.35599014  0.67881843  0.57917245    -0.12900
F505        F  0.41238179  0.82146383  0.66919684    -0.13500
C506        C  0.35532170  0.64291451  0.66724543     0.16300
C507        C  0.34490403  0.59778148  0.67309136     0.25700
C508        C  0.36600059  0.57895214  0.65423865    -0.40600
C509        C  0.39915480  0.60686092  0.63046004     0.32700
C510        C  0.40901756  0.65176645  0.62434176     0.14400
F511        F  0.33248674  0.65931519  0.68436771    -0.12900
F512        F  0.41941793  0.58956024  0.61120948    -0.13500
F513        F  0.31259558  0.57184972  0.69606749    -0.15700
F514        F  0.43890931  0.67698489  0.59983421    -0.14300
F515        F  0.42387604  0.74968714  0.68341059    -0.14300
F516        F  0.34331544  0.74969893  0.56497532    -0.15700
C517        C  0.02706732  0.27576718  0.59551558     0.14300
C518        C  0.04086923  0.25264309  0.61682960     0.01300
C519        C  0.00856118  0.20933431  0.62965012     0.16300
C520        C  0.96237049  0.19031005  0.62257288     0.25700
C521        C  0.94808803  0.21442506  0.60225290    -0.40600
C522        C  0.98117956  0.25683325  0.58815952     0.32700
C523        C  0.08800788  0.27706222  0.62895950     0.01400
F524        F  0.02153562  0.18690907  0.65063762    -0.12900
F525        F  0.96910527  0.28143605  0.56867905    -0.13500
C526        C  0.10115637  0.31195252  0.65284699     0.16300
C527        C  0.14676999  0.34039209  0.66128184     0.25700
C528        C  0.18017260  0.33443118  0.64585429    -0.40600
C529        C  0.16651433  0.29740215  0.62336986     0.32700
C530        C  0.12062966  0.26905156  0.61484997     0.14400
F531        F  0.06983179  0.31985337  0.66685331    -0.12900
F532        F  0.19765388  0.29034003  0.60804380    -0.13500
F533        F  0.15832149  0.37510541  0.68344266    -0.15700
F534        F  0.10836767  0.23555078  0.59151138    -0.14300
F535        F  0.05799831  0.31801286  0.58323142    -0.14300
F536        F  0.93165159  0.14991167  0.63737107    -0.15700
C537        C  0.37171251  0.39932806  0.78788155     0.14300
C538        C  0.41010495  0.39534605  0.78502197     0.01300
C539        C  0.42982072  0.39973755  0.75346605     0.16300
C540        C  0.41125143  0.40803876  0.72512885     0.25700
C541        C  0.37237296  0.41169288  0.72791473    -0.40600
C542        C  0.35291866  0.40720832  0.75977076     0.32700
C543        C  0.42657654  0.38253963  0.81474529     0.01400
F544        F  0.46701050  0.39590913  0.75014847    -0.12900
F545        F  0.31510592  0.40976099  0.76391616    -0.13500
C546        C  0.41931564  0.33791815  0.81713611     0.16300
C547        C  0.42976805  0.32328452  0.84645086     0.25700
C548        C  0.44793474  0.35315720  0.87414715    -0.40600
C549        C  0.45595324  0.39826200  0.87151158     0.32700
C550        C  0.44523460  0.41277123  0.84205467     0.14400
F551        F  0.40027245  0.30775420  0.79141705    -0.12900
F552        F  0.47430414  0.42837946  0.89731238    -0.13500
F553        F  0.42078861  0.27924932  0.84792202    -0.15700
F554        F  0.45282005  0.45625420  0.84019256    -0.14300
F555        F  0.35139395  0.39400329  0.81795456    -0.14300
F556        F  0.43121557  0.41225845  0.69507912    -0.15700
C557        C  0.42641624  0.75166168  0.28219706     0.14300
C558        C  0.40485346  0.70878973  0.29829031     0.01300
C559        C  0.42831717  0.69958451  0.32254845     0.16300
C560        C  0.47422079  0.73113474  0.32844001     0.25700
C561        C  0.49713287  0.77274340  0.31043950    -0.40600
C562        C  0.47221379  0.78380793  0.28852181     0.32700
C563        C  0.36191356  0.67005175  0.28554505     0.01400
F564        F  0.40775101  0.65811627  0.33832413    -0.12900
F565        F  0.49294572  0.82390282  0.27103334    -0.13500
C566        C  0.36350075  0.64602544  0.25756688     0.16300
C567        C  0.32742035  0.60159960  0.25074187     0.25700
C568        C  0.28902744  0.58085675  0.27166714    -0.40600
C569        C  0.28541196  0.60718673  0.29740595     0.32700
C570        C  0.32208762  0.65133403  0.30462578     0.14400
F571        F  0.40199966  0.66367425  0.23897130    -0.12900
F572        F  0.24847585  0.58860194  0.31770218    -0.13500
F573        F  0.33165608  0.57763560  0.22523882    -0.15700
F574        F  0.32023579  0.67420295  0.33182919    -0.14300
F575        F  0.40396573  0.76100709  0.25876802    -0.14300
F576        F  0.49680534  0.71959291  0.35021273    -0.15700
C577        C  0.04247355  0.39166859  0.08655541     0.14300
C578        C  0.02836786  0.36395434  0.11540137     0.01300
C579        C  0.98627417  0.32214766  0.11506265     0.16300
C580        C  0.95918326  0.30823324  0.08653497     0.25700
C581        C  0.97413203  0.33501419  0.05723722    -0.40600
C582        C  0.01599740  0.37706967  0.05763712     0.32700
C583        C  0.05860174  0.37746398  0.14502753     0.01400
F584        F  0.97196717  0.29375852  0.14193777    -0.12900
F585        F  0.03115533  0.40437496  0.03021504    -0.13500
C586        C  0.04252491  0.37747659  0.17738196     0.16300
C587        C  0.07147108  0.38960548  0.20500990     0.25700
C588        C  0.11734277  0.40303773  0.20069532    -0.40600
C589        C  0.13318181  0.40308461  0.16822057     0.32700
C590        C  0.10407579  0.38978036  0.14096152     0.14400
F591        F  0.99897269  0.36649073  0.18224034    -0.12900
F592        F  0.17703143  0.41559507  0.16254087    -0.13500
F593        F  0.05458853  0.38838635  0.23583579    -0.15700
F594        F  0.12033604  0.38795108  0.11049720    -0.14300
F595        F  0.08198580  0.43320081  0.08637198    -0.14300
F596        F  0.91863655  0.26772822  0.08752537    -0.15700
C597        C  0.29863197  0.31985443  0.26806706     0.14300
C598        C  0.28187020  0.29062333  0.29592277     0.01300
C599        C  0.24213237  0.28284185  0.31168668     0.16300
C600        C  0.22109751  0.30647386  0.30113554     0.25700
C601        C  0.24065449  0.33953801  0.27549508    -0.40600
C602        C  0.27870656  0.34484346  0.25826407     0.32700
C603        C  0.30911039  0.27305214  0.31067383     0.01400
F604        F  0.22596696  0.25545646  0.33904109    -0.12900
F605        F  0.29819963  0.37607732  0.23324212    -0.13500
C606        C  0.35314879  0.30466038  0.32194896     0.16300
C607        C  0.38160333  0.28931572  0.33250073     0.25700
C608        C  0.36643624  0.24191781  0.33188925    -0.40600
C609        C  0.32098576  0.21000454  0.32299305     0.32700
C610        C  0.29244222  0.22554868  0.31260653     0.14400
F611        F  0.36907653  0.35070858  0.32167931    -0.12900
F612        F  0.30476078  0.16391441  0.32281804    -0.13500
F613        F  0.42495811  0.32125265  0.34107924    -0.15700
F614        F  0.24938839  0.19438016  0.30283378    -0.14300
F615        F  0.33600863  0.32619533  0.25162524    -0.14300
F616        F  0.18415815  0.30017517  0.31818744    -0.15700
C617        C  0.28544935  0.43398658  0.41850571     0.14300
C618        C  0.25864814  0.43447653  0.44467284     0.01300
C619        C  0.21869316  0.43451490  0.43714801     0.16300
C620        C  0.20628441  0.43494609  0.40390743     0.20900
C621        C  0.23401806  0.43600539  0.37769190    -0.40600
C622        C  0.27340989  0.43483568  0.38545191     0.32700
C623        C  0.27380267  0.43727517  0.47965395     0.01400
F624        F  0.19180723  0.43430924  0.46205346    -0.12900
F625        F  0.30050847  0.43437252  0.36097370    -0.13500
C626        C  0.28339438  0.47558231  0.49938416     0.16300
C627        C  0.29755365  0.47857193  0.53235729     0.25700
C628        C  0.30269846  0.44339177  0.54629026    -0.40600
C629        C  0.29454294  0.40574693  0.52626551     0.32700
C630        C  0.28002812  0.40261701  0.49322642     0.14400
F631        F  0.27903912  0.51021379  0.48665811    -0.12900
F632        F  0.29787498  0.37065204  0.53926395    -0.13500
F633        F  0.30580453  0.51580402  0.55084505    -0.15700
F634        F  0.27022491  0.36480531  0.47489777    -0.14300
F635        F  0.32425110  0.43417243  0.42498352    -0.14300
F636        F  0.16801273  0.43574213  0.39745011    -0.15700
loop_ 
_geom_bond_atom_site_label_1 
_geom_bond_atom_site_label_2 
_geom_bond_distance 
_geom_bond_site_symmetry_2 
_ccdc_geom_bond_type 
In1           O3   2.212       .  S
In1           O4   2.222       .  S
In1          O12   2.195       .  S
In1           O6   2.271       .  S
In1           O8   2.278       .  S
In1           O9   2.213       .  S
In1          O10   2.202       .  S
In1          O13   2.231       .  S
C2            O8   1.274       .  A
C2           O10   1.260       .  A
C2          C621   1.486       .  S
O3           C11   1.264       .  A
O4           C11   1.267       .  A
C5           O12   1.260       .  A
C5            O6   1.271       .  A
C5          C588   1.487       .  S
C7            O9   1.265       .  A
C7           O13   1.265       .  A
C7          C568   1.474       .  S
C11         C601   1.472       .  S
In14         O16   2.235       .  S
In14         O17   2.216       .  S
In14         O25   2.211       .  S
In14         O19   2.278       .  S
In14         O21   2.273       .  S
In14         O22   2.228       .  S
In14         O23   2.205       .  S
In14         O26   2.226       .  S
C15          O21   1.273       .  A
C15          O23   1.259       .  A
C15         C628   1.480       .  S
O16          C24   1.264       .  A
O17          C24   1.265       .  A
C18          O25   1.259       .  A
C18          O19   1.270       .  A
C18         C541   1.491       .  S
C20          O22   1.265       .  A
C20          O26   1.265       .  A
C20         C508   1.476       .  S
C24         C528   1.478       .  S
In27         O29   2.210       .  S
In27         O30   2.218       .  S
In27         O38   2.206       .  S
In27         O32   2.248       .  S
In27         O34   2.262       .  S
In27         O35   2.207       .  S
In27         O36   2.192       .  S
In27         O39   2.224       .  S
C28          O34   1.276       .  A
C28          O36   1.263       .  A
C28         C488   1.487       .  S
O29          C37   1.265       .  A
O30          C37   1.270       .  A
C31          O38   1.263       .  A
C31          O32   1.273       .  A
C31         C468   1.479       .  S
C33          O35   1.269       .  A
C33          O39   1.268       .  A
C33         C441   1.477       .  S
C37         C608   1.476       .  S
In40         O42   2.237       .  S
In40         O43   2.215       .  S
In40         O51   2.219       .  S
In40         O45   2.277       .  S
In40         O47   2.282   1_556  S
In40         O48   2.221       .  S
In40         O49   2.204   1_556  S
In40         O52   2.246       .  S
C41          O47   1.268       .  A
C41          O49   1.257       .  A
C41         C481   1.480       .  S
O42          C50   1.262       .  A
O43          C50   1.260       .  A
C44          O51   1.256       .  A
C44          O45   1.266       .  A
C44         C548   1.486       .  S
C46          O48   1.262       .  A
C46          O52   1.265       .  A
C46         C421   1.474       .  S
C50         C408   1.473       .  S
In53         O55   2.212       .  S
In53         O56   2.233   1_556  S
In53         O64   2.209   1_556  S
In53         O58   2.245   1_556  S
In53         O60   2.254       .  S
In53         O61   2.230   1_556  S
In53         O62   2.192       .  S
In53         O65   2.226       .  S
C54          O60   1.269       .  A
C54          O62   1.259       .  A
C54         C361   1.473       .  S
O55          C63   1.261   1_556  A
O56          C63   1.265       .  A
C57          O64   1.262       .  A
C57          O58   1.265       .  A
C57         C341   1.478       .  S
C59          O61   1.266   1_556  A
C59          O65   1.262       .  A
C59         C381   1.477       .  S
C63         C401   1.474       .  S
In66         O68   2.220       .  S
In66         O69   2.233       .  S
In66         O77   2.219       .  S
In66         O71   2.268       .  S
In66         O73   2.199       .  S
In66         O74   2.225       .  S
In66         O75   2.262       .  S
In66         O78   2.241       .  S
C67          O73   1.258       .  A
C67          O75   1.270       .  A
C67         C368   1.480       .  S
O68          C76   1.261       .  A
O69          C76   1.264       .  A
C70          O77   1.259       .  A
C70          O71   1.266       .  A
C70         C461   1.479       .  S
C72          O74   1.263       .  A
C72          O78   1.263       .  A
C72         C501   1.476       .  S
C76         C321   1.475       .  S
In79         O81   2.231       .  S
In79         O82   2.218       .  S
In79         O90   2.208   1_556  S
In79         O84   2.261       .  S
In79         O86   2.271       .  S
In79         O87   2.213       .  S
In79         O88   2.191       .  S
In79         O91   2.238       .  S
C80          O86   1.272       .  A
C80          O88   1.259       .  A
C80         C301   1.479       .  S
O81          C89   1.263       .  A
O82          C89   1.265       .  A
C83          O90   1.260       .  A
C83          O84   1.269   1_554  A
C83         C581   1.483       .  S
C85          O87   1.264       .  A
C85          O91   1.265       .  A
C85         C428   1.474       .  S
C89         C288   1.476       .  S
In92         O94   2.239       .  S
In92         O95   2.219       .  S
In92        O103   2.210       .  S
In92         O97   2.279       .  S
In92         O99   2.273       .  S
In92        O100   2.231       .  S
In92        O101   2.182       .  S
In92        O104   2.244       .  S
C93          O99   1.275       .  A
C93         O101   1.260       .  A
C93         C308   1.484       .  S
O94         C102   1.265       .  A
O95         C102   1.267       .  A
C96         O103   1.261       .  A
C96          O97   1.271       .  A
C96         C261   1.489       .  S
C98         O100   1.265       .  A
C98         O104   1.265       .  A
C98         C241   1.480       .  S
C102        C521   1.482       .  S
In105       O107   2.224       .  S
In105       O108   2.247       .  S
In105       O116   2.232       .  S
In105       O110   2.271       .  S
In105       O112   2.270       .  S
In105       O113   2.228       .  S
In105       O114   2.215       .  S
In105       O117   2.230       .  S
C106        O112   1.270       .  A
C106        O114   1.258       .  A
C106        C228   1.482       .  S
O107        C115   1.261       .  A
O108        C115   1.265       .  A
C109        O116   1.261       .  A
C109        O110   1.265       .  A
C109        C268   1.492       .  S
C111        O113   1.266       .  A
C111        O117   1.264       .  A
C111        C561   1.477       .  S
C115        C208   1.477       .  S
In118       O120   2.229       .  S
In118       O121   2.236       .  S
In118       O129   2.222       .  S
In118       O123   2.284       .  S
In118       O125   2.292       .  S
In118       O126   2.233       .  S
In118       O127   2.216       .  S
In118       O130   2.247       .  S
C119        O125   1.268       .  A
C119        O127   1.255       .  A
C119        C221   1.483   1_556  S
O120        C128   1.264       .  A
O121        C128   1.263       .  A
C122        O129   1.257       .  A
C122        O123   1.266       .  A
C122        C181   1.488       .  S
C124        O126   1.261       .  A
C124        O130   1.263       .  A
C124        C388   1.481       .  S
C128        C281   1.476       .  S
In131       O133   2.233       .  S
In131       O134   2.226       .  S
In131       O142   2.248       .  S
In131       O136   2.268       .  S
In131       O138   2.268       .  S
In131       O139   2.232       .  S
In131       O140   2.241       .  S
In131       O143   2.266       .  S
C132        O138   1.265       .  A
C132        O140   1.255       .  A
C132        C168   1.475       .  S
O133        C141   1.262       .  A
O134        C141   1.262       .  A
C135        O142   1.256       .  A
C135        O136   1.260       .  A
C135        C188   1.484       .  S
C137        O139   1.260       .  A
C137        O143   1.263       .  A
C137        C248   1.483       .  S
C141        C328   1.474       .  S
In144       O146   2.222       .  S
In144       O147   2.235       .  S
In144       O155   2.223       .  S
In144       O149   2.259       .  S
In144       O151   2.215       .  S
In144       O152   2.216       .  S
In144       O153   2.275       .  S
In144       O156   2.237       .  S
C145        O151   1.258       .  A
C145        O153   1.269       .  A
C145        C161   1.487       .  S
O146        C154   1.262       .  A
O147        C154   1.263       .  A
C148        O155   1.259       .  A
C148        O149   1.265       .  A
C148        C348   1.480       .  S
C150        O152   1.263       .  A
C150        O156   1.263       .  A
C150        C448   1.477       .  S
C154        C201   1.477       .  S
C157        C158   1.402       .  A
C157        C162   1.396       .  A
C157        F175   1.358       .  S
C158        C163   1.484       .  S
C158        C159   1.408       .  A
C159        C160   1.403       .  A
C159        F164   1.358       .  S
C160        C161   1.408       .  A
C160        F176   1.357       .  S
C161        C162   1.413       .  A
C162        F165   1.358       .  S
C163        C166   1.407       .  A
C163        C170   1.407       .  A
C166        C167   1.397       .  A
C166        F171   1.358       .  S
C167        C168   1.403       .  A
C167        F173   1.358       .  S
C168        C169   1.409       .  A
C169        C170   1.403       .  A
C169        F172   1.358       .  S
C170        F174   1.358       .  S
C177        C178   1.401       .  A
C177        C182   1.397       .  A
C177        F195   1.358       .  S
C178        C183   1.483       .  S
C178        C179   1.407       .  A
C179        C180   1.407       .  A
C179        F184   1.358       .  S
C180        C181   1.410       .  A
C180        F196   1.358       .  S
C181        C182   1.411       .  A
C182        F185   1.358       .  S
C183        C186   1.406       .  A
C183        C190   1.403       .  A
C186        C187   1.401       .  A
C186        F191   1.358       .  S
C187        C188   1.408       .  A
C187        F193   1.358       .  S
C188        C189   1.411       .  A
C189        C190   1.402       .  A
C189        F192   1.358       .  S
C190        F194   1.358       .  S
C197        C198   1.404       .  A
C197        C202   1.395       .  A
C197        F215   1.358       .  S
C198        C203   1.478       .  S
C198        C199   1.405       .  A
C199        C200   1.398       .  A
C199        F204   1.358       .  S
C200        C201   1.409       .  A
C200        F216   1.358       .  S
C201        C202   1.408       .  A
C202        F205   1.358       .  S
C203        C206   1.402       .  A
C203        C210   1.407       .  A
C206        C207   1.397       .  A
C206        F211   1.358       .  S
C207        C208   1.410       .  A
C207        F213   1.358       .  S
C208        C209   1.405       .  A
C209        C210   1.399       .  A
C209        F212   1.358       .  S
C210        F214   1.358       .  S
C217        C218   1.406       .  A
C217        C222   1.398       .  A
C217        F235   1.358       .  S
C218        C223   1.494       .  S
C218        C219   1.413       .  A
C219        C220   1.404       .  A
C219        F224   1.358       .  S
C220        C221   1.404       .  A
C220        F236   1.357       .  S
C221        C222   1.410       .  A
C222        F225   1.358       .  S
C223        C226   1.407       .  A
C223        C230   1.411       .  A
C226        C227   1.397       .  A
C226        F231   1.358       .  S
C227        C228   1.408       .  A
C227        F233   1.358       .  S
C228        C229   1.406       .  A
C229        C230   1.404       .  A
C229        F232   1.358       .  S
C230        F234   1.357       .  S
C237        C238   1.407       .  A
C237        C242   1.399       .  A
C237        F255   1.357       .  S
C238        C243   1.487       .  S
C238        C239   1.407       .  A
C239        C240   1.402       .  A
C239        F244   1.358       .  S
C240        C241   1.409       .  A
C240        F256   1.358       .  S
C241        C242   1.405       .  A
C242        F245   1.358       .  S
C243        C246   1.407       .  A
C243        C250   1.406       .  A
C246        C247   1.403       .  A
C246        F251   1.358       .  S
C247        C248   1.409       .  A
C247        F253   1.358       .  S
C248        C249   1.408       .  A
C249        C250   1.397       .  A
C249        F252   1.358       .  S
C250        F254   1.358       .  S
C257        C258   1.404       .  A
C257        C262   1.398       .  A
C257        F275   1.358       .  S
C258        C263   1.489   1_545  S
C258        C259   1.409       .  A
C259        C260   1.407       .  A
C259        F264   1.358   1_545  S
C260        C261   1.408       .  A
C260        F276   1.357       .  S
C261        C262   1.411       .  A
C262        F265   1.358       .  S
C263        C266   1.404       .  A
C263        C270   1.407   1_565  A
C266        C267   1.400       .  A
C266        F271   1.357       .  S
C267        C268   1.411       .  A
C267        F273   1.358       .  S
C268        C269   1.411       .  A
C269        C270   1.404   1_565  A
C269        F272   1.357       .  S
C270        F274   1.358       .  S
C277        C278   1.399   1_565  A
C277        C282   1.394       .  A
C277        F295   1.358   1_565  S
C278        C283   1.470       .  S
C278        C279   1.404   1_545  A
C279        C280   1.399       .  A
C279        F284   1.358   1_565  S
C280        C281   1.409       .  A
C280        F296   1.358       .  S
C281        C282   1.409       .  A
C282        F285   1.357       .  S
C283        C286   1.401       .  A
C283        C290   1.402       .  A
C286        C287   1.398       .  A
C286        F291   1.358       .  S
C287        C288   1.411       .  A
C287        F293   1.358       .  S
C288        C289   1.407       .  A
C289        C290   1.394       .  A
C289        F292   1.358       .  S
C290        F294   1.358       .  S
C297        C298   1.406       .  A
C297        C302   1.402       .  A
C297        F315   1.358       .  S
C298        C303   1.475       .  S
C298        C299   1.399       .  A
C299        C300   1.395       .  A
C299        F304   1.358       .  S
C300        C301   1.411       .  A
C300        F316   1.358       .  S
C301        C302   1.407       .  A
C302        F305   1.357       .  S
C303        C306   1.406       .  A
C303        C310   1.397       .  A
C306        C307   1.404       .  A
C306        F311   1.358       .  S
C307        C308   1.408       .  A
C307        F313   1.357       .  S
C308        C309   1.415       .  A
C309        C310   1.392       .  A
C309        F312   1.358       .  S
C310        F314   1.358       .  S
C317        C318   1.407       .  A
C317        C322   1.396       .  A
C317        F335   1.358       .  S
C318        C323   1.478       .  S
C318        C319   1.403       .  A
C319        C320   1.394       .  A
C319        F324   1.358       .  S
C320        C321   1.410       .  A
C320        F336   1.358       .  S
C321        C322   1.407       .  A
C322        F325   1.358       .  S
C323        C326   1.406       .  A
C323        C330   1.405       .  A
C326        C327   1.395   1_455  A
C326        F331   1.358       .  S
C327        C328   1.407       .  A
C327        F333   1.358       .  S
C328        C329   1.408       .  A
C329        C330   1.395   1_655  A
C329        F332   1.358       .  S
C330        F334   1.358       .  S
C337        C338   1.407       .  A
C337        C342   1.400       .  A
C337        F355   1.358       .  S
C338        C343   1.481       .  S
C338        C339   1.403       .  A
C339        C340   1.395       .  A
C339        F344   1.357       .  S
C340        C341   1.408       .  A
C340        F356   1.358       .  S
C341        C342   1.409       .  A
C342        F345   1.358       .  S
C343        C346   1.403       .  A
C343        C350   1.407       .  A
C346        C347   1.397   1_455  A
C346        F351   1.358   1_455  S
C347        C348   1.409       .  A
C347        F353   1.358       .  S
C348        C349   1.407   1_655  A
C349        C350   1.399       .  A
C349        F352   1.358       .  S
C350        F354   1.358       .  S
C357        C358   1.400       .  A
C357        C362   1.391       .  A
C357        F375   1.358       .  S
C358        C363   1.474       .  S
C358        C359   1.407       .  A
C359        C360   1.400       .  A
C359        F364   1.358       .  S
C360        C361   1.406       .  A
C360        F376   1.358       .  S
C361        C362   1.409       .  A
C362        F365   1.358       .  S
C363        C366   1.399       .  A
C363        C370   1.406       .  A
C366        C367   1.393       .  A
C366        F371   1.359       .  S
C367        C368   1.413       .  A
C367        F373   1.358       .  S
C368        C369   1.407       .  A
C369        C370   1.400       .  A
C369        F372   1.357       .  S
C370        F374   1.358       .  S
C377        C378   1.402       .  A
C377        C382   1.399       .  A
C377        F395   1.358       .  S
C378        C383   1.475       .  S
C378        C379   1.405       .  A
C379        C380   1.396       .  A
C379        F384   1.358   1_556  S
C380        C381   1.406       .  A
C380        F396   1.358   1_556  S
C381        C382   1.411       .  A
C382        F385   1.358       .  S
C383        C386   1.404       .  A
C383        C390   1.402       .  A
C386        C387   1.397       .  A
C386        F391   1.359       .  S
C387        C388   1.410       .  A
C387        F393   1.358       .  S
C388        C389   1.409       .  A
C389        C390   1.398       .  A
C389        F392   1.357       .  S
C390        F394   1.358       .  S
C397        C398   1.400   1_565  A
C397        C402   1.393       .  A
C397        F415   1.358   1_565  S
C398        C403   1.471       .  S
C398        C399   1.404   1_556  A
C399        C400   1.396   1_545  A
C399        F404   1.358       .  S
C400        C401   1.407       .  A
C400        F416   1.358       .  S
C401        C402   1.411   1_554  A
C402        F405   1.358       .  S
C403        C406   1.403       .  A
C403        C410   1.402       .  A
C406        C407   1.397       .  A
C406        F411   1.358   1_556  S
C407        C408   1.409       .  A
C407        F413   1.358       .  S
C408        C409   1.408       .  A
C409        C410   1.392       .  A
C409        F412   1.358       .  S
C410        F414   1.358       .  S
C417        C418   1.404       .  A
C417        C422   1.397       .  A
C417        F435   1.358       .  S
C418        C423   1.475       .  S
C418        C419   1.403       .  A
C419        C420   1.399       .  A
C419        F424   1.358   1_556  S
C420        C421   1.408       .  A
C420        F436   1.358   1_556  S
C421        C422   1.406       .  A
C422        F425   1.358       .  S
C423        C426   1.403       .  A
C423        C430   1.404       .  A
C426        C427   1.400       .  A
C426        F431   1.358       .  S
C427        C428   1.409       .  A
C427        F433   1.358       .  S
C428        C429   1.406   1_556  A
C429        C430   1.395   1_554  A
C429        F432   1.358       .  S
C430        F434   1.358   1_556  S
C437        C438   1.403       .  A
C437        C442   1.398       .  A
C437        F455   1.358       .  S
C438        C443   1.473       .  S
C438        C439   1.404       .  A
C439        C440   1.394       .  A
C439        F444   1.358       .  S
C440        C441   1.407       .  A
C440        F456   1.358       .  S
C441        C442   1.410       .  A
C442        F445   1.358       .  S
C443        C446   1.404       .  A
C443        C450   1.403       .  A
C446        C447   1.392       .  A
C446        F451   1.359       .  S
C447        C448   1.407       .  A
C447        F453   1.358       .  S
C448        C449   1.411       .  A
C449        C450   1.400       .  A
C449        F452   1.358       .  S
C450        F454   1.358       .  S
C457        C458   1.408       .  A
C457        C462   1.404       .  A
C457        F475   1.358       .  S
C458        C463   1.485       .  S
C458        C459   1.404   1_545  A
C459        C460   1.397       .  A
C459        F464   1.358       .  S
C460        C461   1.407       .  A
C460        F476   1.358       .  S
C461        C462   1.407   1_565  A
C462        F465   1.358       .  S
C463        C466   1.404       .  A
C463        C470   1.408       .  A
C466        C467   1.399       .  A
C466        F471   1.358       .  S
C467        C468   1.410       .  A
C467        F473   1.358       .  S
C468        C469   1.404       .  A
C469        C470   1.401       .  A
C469        F472   1.358       .  S
C470        F474   1.358   1_545  S
C477        C478   1.400       .  A
C477        C482   1.393       .  A
C477        F495   1.358       .  S
C478        C483   1.476       .  S
C478        C479   1.405       .  A
C479        C480   1.406       .  A
C479        F484   1.358       .  S
C480        C481   1.409       .  A
C480        F496   1.358       .  S
C481        C482   1.409       .  A
C482        F485   1.358       .  S
C483        C486   1.399       .  A
C483        C490   1.405       .  A
C486        C487   1.396       .  A
C486        F491   1.358       .  S
C487        C488   1.415       .  A
C487        F493   1.358       .  S
C488        C489   1.408       .  A
C489        C490   1.404       .  A
C489        F492   1.357       .  S
C490        F494   1.358       .  S
C497        C498   1.403       .  A
C497        C502   1.399       .  A
C497        F515   1.358       .  S
C498        C503   1.476       .  S
C498        C499   1.404       .  A
C499        C500   1.396       .  A
C499        F504   1.358       .  S
C500        C501   1.406       .  A
C500        F516   1.358       .  S
C501        C502   1.409       .  A
C502        F505   1.358       .  S
C503        C506   1.405       .  A
C503        C510   1.402       .  A
C506        C507   1.397       .  A
C506        F511   1.358       .  S
C507        C508   1.407       .  A
C507        F513   1.358       .  S
C508        C509   1.410       .  A
C509        C510   1.398       .  A
C509        F512   1.358       .  S
C510        F514   1.358       .  S
C517        C518   1.401       .  A
C517        C522   1.395   1_455  A
C517        F535   1.358       .  S
C518        C523   1.472       .  S
C518        C519   1.401       .  A
C519        C520   1.401   1_455  A
C519        F524   1.358       .  S
C520        C521   1.413       .  A
C520        F536   1.358       .  S
C521        C522   1.409       .  A
C522        F525   1.358       .  S
C523        C526   1.401       .  A
C523        C530   1.402       .  A
C526        C527   1.393       .  A
C526        F531   1.358       .  S
C527        C528   1.407       .  A
C527        F533   1.358       .  S
C528        C529   1.412       .  A
C529        C530   1.401       .  A
C529        F532   1.358       .  S
C530        F534   1.358       .  S
C537        C538   1.400       .  A
C537        C542   1.397       .  A
C537        F555   1.358       .  S
C538        C543   1.482       .  S
C538        C539   1.407       .  A
C539        C540   1.406       .  A
C539        F544   1.358       .  S
C540        C541   1.410       .  A
C540        F556   1.357       .  S
C541        C542   1.414       .  A
C542        F545   1.358       .  S
C543        C546   1.401       .  A
C543        C550   1.407       .  A
C546        C547   1.397       .  A
C546        F551   1.358       .  S
C547        C548   1.412       .  A
C547        F553   1.358       .  S
C548        C549   1.408       .  A
C549        C550   1.404       .  A
C549        F552   1.358       .  S
C550        F554   1.357       .  S
C557        C558   1.400       .  A
C557        C562   1.399       .  A
C557        F575   1.358       .  S
C558        C563   1.469       .  S
C558        C559   1.402       .  A
C559        C560   1.395       .  A
C559        F564   1.358       .  S
C560        C561   1.407       .  A
C560        F576   1.358       .  S
C561        C562   1.411       .  A
C562        F565   1.358       .  S
C563        C566   1.403       .  A
C563        C570   1.401       .  A
C566        C567   1.394       .  A
C566        F571   1.358       .  S
C567        C568   1.407       .  A
C567        F573   1.358       .  S
C568        C569   1.410       .  A
C569        C570   1.398       .  A
C569        F572   1.357       .  S
C570        F574   1.357       .  S
C577        C578   1.410       .  A
C577        C582   1.400       .  A
C577        F595   1.358       .  S
C578        C583   1.490       .  S
C578        C579   1.406   1_455  A
C579        C580   1.398       .  A
C579        F584   1.358       .  S
C580        C581   1.411       .  A
C580        F596   1.359       .  S
C581        C582   1.406   1_655  A
C582        F585   1.357       .  S
C583        C586   1.411       .  A
C583        C590   1.404       .  A
C586        C587   1.405       .  A
C586        F591   1.358   1_455  S
C587        C588   1.408       .  A
C587        F593   1.357       .  S
C588        C589   1.412       .  A
C589        C590   1.394       .  A
C589        F592   1.358       .  S
C590        F594   1.358       .  S
C597        C598   1.405       .  A
C597        C602   1.395       .  A
C597        F615   1.358       .  S
C598        C603   1.472       .  S
C598        C599   1.401       .  A
C599        C600   1.396       .  A
C599        F604   1.358       .  S
C600        C601   1.410       .  A
C600        F616   1.358       .  S
C601        C602   1.406       .  A
C602        F605   1.358       .  S
C603        C606   1.403       .  A
C603        C610   1.402       .  A
C606        C607   1.393       .  A
C606        F611   1.358       .  S
C607        C608   1.407       .  A
C607        F613   1.358       .  S
C608        C609   1.411       .  A
C609        C610   1.399       .  A
C609        F612   1.358       .  S
C610        F614   1.358       .  S
C617        C618   1.402       .  A
C617        C622   1.397       .  A
C617        F635   1.358       .  S
C618        C623   1.486       .  S
C618        C619   1.410       .  A
C619        C620   1.406       .  A
C619        F624   1.358       .  S
C620        C621   1.407       .  A
C620        F636   1.357       .  S
C621        C622   1.413       .  A
C622        F625   1.358       .  S
C623        C626   1.404       .  A
C623        C630   1.409       .  A
C626        C627   1.398       .  A
C626        F631   1.358       .  S
C627        C628   1.409       .  A
C627        F633   1.358       .  S
C628        C629   1.405       .  A
C629        C630   1.404       .  A
C629        F632   1.357       .  S
C630        F634   1.357       .  S
