geometry optimzed in LAMMPS
_audit_creation_date              2020-12-01 
_audit_creation_method            'lammps2cif' 
_symmetry_space_group_name_H-M    'P1' 
_symmetry_Int_Tables_number       1 
_symmetry_cell_setting            triclinic 
loop_ 
_symmetry_equiv_pos_as_xyz 
  x,y,z 
_cell_length_a                    39.24114957 
_cell_length_b                    39.23580824915455 
_cell_length_c                    216.9123134908319 
_cell_angle_alpha                 90.00113440559747 
_cell_angle_beta                  90.01317942616305 
_cell_angle_gamma                 119.96900896108258 
loop_ 
_atom_site_label 
_atom_site_type_symbol 
_atom_site_fract_x 
_atom_site_fract_y 
_atom_site_fract_z 
_atom_site_charge 
Zr1        Zr  0.77814141  0.16124509  0.61460153     2.17500
O2          O  0.79448261  0.20267503  0.60545556    -0.51800
O3          O  0.71168251  0.14972676  0.61565759    -0.75000
O4          O  0.75096110  0.12255744  0.60531288    -0.81700
O5          O  0.82204191  0.24866267  0.62539283    -0.83500
O6          O  0.74901409  0.06388738  0.60640675    -0.79100
O7          O  0.79262356  0.22871452  0.61601827    -0.90700
O8          O  0.68494053  0.11110385  0.62409002    -0.76700
O9          O  0.74327914  0.09381733  0.61765725    -0.86200
O10         O  0.76667352  0.16150351  0.62536432    -0.85900
O11         O  0.82018848  0.13500033  0.61213666    -0.72600
O12         O  0.84169653  0.19885995  0.61924878    -0.84800
Zr13       Zr  0.83988599  0.10493754  0.63087232     2.26400
Zr14       Zr  0.78597113  0.06803363  0.61560662     2.06300
Zr15       Zr  0.82990401  0.19672457  0.63008906     2.10000
Zr16       Zr  0.73219309  0.09416307  0.62835672     1.78800
O17         O  0.89590158  0.25198577  0.63178877    -0.93600
O18         O  0.67547867  0.03083012  0.62569117    -0.41400
O19         O  0.79573004  0.12916895  0.63299578    -0.78000
O20         O  0.77452504  0.06682693  0.62647512    -0.96700
O21         O  0.85027768  0.10459497  0.62007286    -0.90000
O22         O  0.87368081  0.17243061  0.62788416    -0.92900
C23         C  0.68365587  0.13144059  0.61953720     1.00900
C24         C  0.80858211  0.25435220  0.62033575     1.13800
C25         C  0.74182716  0.08795892  0.60346332     1.04600
O26         O  0.72800504  0.00278181  0.61495904    -0.95000
O27         O  0.79956557  0.01776029  0.61942702    -0.90800
O28         O  0.82750591  0.03839104  0.62883472    -0.83900
C29         C  0.81415030  0.01305060  0.62444023     1.11200
O30         O  0.89700117  0.20655387  0.60717919    -0.97000
Zr31       Zr  0.88306169  0.17192526  0.61700262     1.88900
O32         O  0.91121021  0.12908395  0.63030080    -0.73600
O33         O  0.81866212  0.05744276  0.60688751    -0.52900
O34         O  0.91157640  0.14933496  0.60915101    -0.97600
O35         O  0.93520324  0.23938494  0.61892528    -0.54800
O36         O  0.93525169  0.16601327  0.62166680    -0.74200
C37         C  0.93935131  0.14985490  0.62650936     0.98200
O38         O  0.85005331  0.07488743  0.64001924    -0.63000
O39         O  0.80379698  0.22410064  0.63758882    -0.57800
O40         O  0.83582134  0.12553062  0.64137127    -0.94500
O41         O  0.83261692  0.18175184  0.64087803    -0.92900
O42         O  0.70996756  0.11798871  0.63694361    -0.93200
O43         O  0.70978818  0.04981191  0.63717427    -0.92000
C44         C  0.83287385  0.15366917  0.64387983     1.17000
H45         H  0.75192857  0.17455812  0.62626952     0.33000
H46         H  0.76166824  0.04016011  0.62800963     0.43800
H47         H  0.89807193  0.18737397  0.63011417     0.37400
H48         H  0.82398432  0.13564443  0.60773055     0.33800
H49         H  0.65270656  0.03169140  0.62748373     0.25600
H50         H  0.83704574  0.04996263  0.60874203     0.31600
H51         H  0.90756548  0.12387553  0.61071011     0.37500
H52         H  0.72358237  0.14689597  0.63641108     0.31900
H53         H  0.82274277  0.25271706  0.63767133     0.30800
H54         H  0.89188932  0.27426237  0.63285545     0.32500
H55         H  0.94623254  0.23880414  0.62300461     0.31500
H56         H  0.73400601  0.05720217  0.63956540     0.35500
H57         H  0.82459579  0.05058506  0.64076583     0.28200
H58         H  0.76911614  0.19478139  0.60338286     0.32400
H59         H  0.92560009  0.22558134  0.60719078     0.35300
H60         H  0.77975404  0.22163657  0.63567625     0.27900
H61         H  0.86841606  0.06575904  0.63876514     0.40700
H62         H  0.71506101  0.99860178  0.61902413     0.30800
H63         H  0.67229340  0.03205348  0.62118302     0.38400
H64         H  0.92137667  0.25433388  0.61962507     0.30300
H65         H  0.79802158  0.03297217  0.60493120     0.30300
H66         H  0.80845562  0.19370742  0.60267701     0.30600
Zr67       Zr  0.80673017  0.19658375  0.70278243     2.17500
O68         O  0.80861145  0.24022811  0.69459126    -0.51800
O69         O  0.73820482  0.17933464  0.70424332    -0.75000
O70         O  0.79081237  0.16663995  0.69250460    -0.81700
O71         O  0.85254078  0.28336755  0.71407267    -0.83500
O72         O  0.79333195  0.11026122  0.69261497    -0.79100
O73         O  0.82339041  0.26372137  0.70469191    -0.90700
O74         O  0.71276416  0.13655855  0.71224564    -0.76700
O75         O  0.77138767  0.12945109  0.70582825    -0.86200
O76         O  0.79893852  0.19684006  0.71367463    -0.85900
O77         O  0.84923912  0.17187405  0.69975708    -0.72600
O78         O  0.87213345  0.23258181  0.70704537    -0.84800
Zr79       Zr  0.86956767  0.13769281  0.71817402     2.26400
Zr80       Zr  0.81350406  0.10430647  0.70294613     2.06300
Zr81       Zr  0.86365199  0.23154674  0.71801487     2.10000
Zr82       Zr  0.76512241  0.12991168  0.71677370     1.78800
O83         O  0.92115278  0.29690619  0.71895676    -0.93600
O84         O  0.71161666  0.06260259  0.71536419    -0.41400
O85         O  0.82926203  0.16448981  0.72135010    -0.78000
O86         O  0.80450943  0.10190395  0.71390564    -0.96700
O87         O  0.87787918  0.13812475  0.70732643    -0.90000
O88         O  0.90458851  0.20503097  0.71514898    -0.92900
C89         C  0.70990639  0.15677380  0.70785917     1.00900
C90         C  0.83809529  0.28875542  0.70908920     1.13800
C91         C  0.78888261  0.13651920  0.68980485     1.04600
O92         O  0.74897910  0.04572562  0.70190506    -0.95000
O93         O  0.82402614  0.05272958  0.70689029    -0.90800
O94         O  0.85760904  0.07207716  0.71596227    -0.83900
C95         C  0.84051502  0.04720246  0.71159050     1.11200
O96         O  0.93766348  0.25412767  0.69614790    -0.97000
Zr97       Zr  0.91283076  0.20512453  0.70434872     1.88900
O98         O  0.93441860  0.14661641  0.71629906    -0.73600
O99         O  0.84339836  0.08179084  0.69529182    -0.52900
O100        O  0.92707159  0.18046755  0.69496560    -0.97600
O101        O  0.97179644  0.26652725  0.70710148    -0.54800
O102        O  0.95701549  0.18154104  0.70740626    -0.74200
C103        C  0.95953366  0.16171898  0.71191270     0.98200
O104        O  0.85187867  0.09676322  0.72740883    -0.63000
O105        O  0.82719156  0.23997173  0.72640253    -0.57800
O106        O  0.90430239  0.17589779  0.72718714    -0.94500
O107        O  0.90063753  0.23196267  0.72717670    -0.92900
O108        O  0.74435598  0.15863436  0.72487369    -0.93200
O109        O  0.74842561  0.09213131  0.72630679    -0.92000
C110        C  0.91214756  0.20914498  0.72950601     1.17000
H111        H  0.78408899  0.20951588  0.71477722     0.33000
H112        H  0.79131644  0.07500895  0.71533991     0.43800
H113        H  0.93003828  0.21894904  0.71710718     0.37400
H114        H  0.85449623  0.17454977  0.69538529     0.33800
H115        H  0.68924708  0.06114510  0.71769962     0.25600
H116        H  0.82105784  0.05875602  0.69329962     0.31600
H117        H  0.91952167  0.15293228  0.69593976     0.37500
H118        H  0.71610684  0.13953036  0.72552430     0.31900
H119        H  0.82942809  0.22501501  0.72990366     0.30800
H120        H  0.91662814  0.30794950  0.72276975     0.32500
H121        H  0.98640877  0.25900443  0.70999868     0.31500
H122        H  0.77297053  0.09264681  0.72753380     0.35500
H123        H  0.84385362  0.11014871  0.73046658     0.28200
H124        H  0.78281021  0.22623096  0.69247632     0.32400
H125        H  0.96352175  0.25736336  0.69497840     0.35300
H126        H  0.84338819  0.26791060  0.72762544     0.27900
H127        H  0.82700319  0.07253337  0.72636267     0.40700
H128        H  0.75206320  0.03068372  0.69849792     0.30800
H129        H  0.70388174  0.06124540  0.71098604     0.38400
H130        H  0.96214834  0.28080891  0.70967023     0.30300
H131        H  0.85403685  0.10232096  0.69205536     0.30300
H132        H  0.82804170  0.24157181  0.69154470     0.30600
Zr133      Zr  0.82154838  0.59464420  0.61406853     2.17500
O134        O  0.78096413  0.57082603  0.60482111    -0.51800
O135        O  0.83127604  0.53883403  0.61512436    -0.75000
O136        O  0.86229968  0.60463413  0.60509265    -0.81700
O137        O  0.73707203  0.54775933  0.62512048    -0.83500
O138        O  0.91647684  0.66571466  0.60549655    -0.79100
O139        O  0.75430993  0.54184411  0.61533601    -0.90700
O140        O  0.87406463  0.55210906  0.62302130    -0.76700
O141        O  0.88944653  0.62898355  0.61679478    -0.86200
O142        O  0.82330266  0.58205082  0.62478483    -0.85900
O143        O  0.84477387  0.66241748  0.61166440    -0.72600
O144        O  0.78338213  0.61833098  0.61916507    -0.84800
Zr145      Zr  0.87701191  0.71063735  0.63051359     2.26400
Zr146      Zr  0.91236994  0.69720008  0.61487763     2.06300
Zr147      Zr  0.78761162  0.60813123  0.62993216     2.10000
Zr148      Zr  0.89122982  0.61639277  0.62741168     1.78800
O149        O  0.73219112  0.61727387  0.63242506    -0.93600
O150        O  0.95592917  0.62829486  0.62429135    -0.41400
O151        O  0.85559798  0.64280523  0.63247960    -0.78000
O152        O  0.91585554  0.68582526  0.62566953    -0.96700
O153        O  0.87471756  0.72202266  0.61980486    -0.90000
O154        O  0.80909819  0.67577135  0.62783273    -0.92900
C155        C  0.85093309  0.52941731  0.61876560     1.00900
C156        C  0.73025056  0.53008466  0.61989399     1.13800
C157        C  0.89520637  0.63195381  0.60296250     1.04600
O158        O  0.97947971  0.70905546  0.61443037    -0.95000
O159        O  0.95806114  0.76371003  0.61846727    -0.90800
O160        O  0.94077185  0.76757848  0.62827324    -0.83900
C161        C  0.96351893  0.78216015  0.62360079     1.11200
O162        O  0.76220223  0.66010750  0.60822946    -0.97000
Zr163      Zr  0.80715261  0.68602957  0.61698422     1.88900
O164        O  0.85332251  0.75813577  0.63012258    -0.73600
O165        O  0.92170865  0.73910605  0.60601400    -0.52900
O166        O  0.83056509  0.73395443  0.60862203    -0.97600
O167        O  0.74119120  0.67247286  0.61971161    -0.54800
O168        O  0.81674176  0.74604505  0.62144014    -0.74200
C169        C  0.83322490  0.76611939  0.62627900     0.98200
O170        O  0.91133808  0.74561717  0.63984723    -0.63000
O171        O  0.75984478  0.55507312  0.63749757    -0.57800
O172        O  0.85704931  0.68836180  0.64109075    -0.94500
O173        O  0.80719978  0.62505782  0.64065231    -0.92900
O174        O  0.87112573  0.57132603  0.63612281    -0.93200
O175        O  0.93525893  0.63654232  0.63626267    -0.92000
C176        C  0.83271360  0.65547109  0.64363723     1.17000
H177        H  0.81100300  0.55431990  0.62570390     0.33000
H178        H  0.94271364  0.70054069  0.62710684     0.43800
H179        H  0.79443905  0.68488806  0.63021856     0.37400
H180        H  0.84310259  0.66546421  0.60727393     0.33800
H181        H  0.95857439  0.60706980  0.62630080     0.25600
H182        H  0.91883128  0.76105267  0.60766670     0.31600
H183        H  0.81644329  0.74878706  0.60913313     0.37500
H184        H  0.84456460  0.56651064  0.63719922     0.31900
H185        H  0.73095925  0.54333794  0.63719149     0.30800
H186        H  0.72344838  0.60519594  0.63654970     0.32500
H187        H  0.73708337  0.69151872  0.61729614     0.31500
H188        H  0.92981674  0.65524948  0.63852107     0.35500
H189        H  0.93861131  0.75060084  0.63948506     0.28200
H190        H  0.78882838  0.55329651  0.60275726     0.32400
H191        H  0.75588483  0.68076520  0.60708840     0.35300
H192        H  0.76529998  0.53471839  0.63586435     0.27900
H193        H  0.91347445  0.77178646  0.63955034     0.40700
H194        H  0.98621623  0.70624128  0.61872622     0.30800
H195        H  0.95331320  0.62169256  0.61984794     0.38400
H196        H  0.74305504  0.68139644  0.62402941     0.30300
H197        H  0.95002716  0.75118065  0.60500799     0.30300
H198        H  0.79063837  0.59404683  0.60208855     0.30600
Zr199      Zr  0.78224375  0.59427926  0.70251328     2.17500
O200        O  0.73607063  0.55558438  0.69437209    -0.51800
O201        O  0.80162440  0.54422059  0.70342715    -0.75000
O202        O  0.81324046  0.60780771  0.69239734    -0.81700
O203        O  0.69546515  0.55033265  0.71369597    -0.83500
O204        O  0.86962539  0.66679633  0.69266189    -0.79100
O205        O  0.71640849  0.54055939  0.70443829    -0.90700
O206        O  0.83353640  0.55468127  0.71254808    -0.76700
O207        O  0.84933443  0.62642792  0.70566069    -0.86200
O208        O  0.78109542  0.58479307  0.71336827    -0.85900
O209        O  0.80709005  0.66185399  0.69961815    -0.72600
O210        O  0.74514693  0.62248655  0.70678802    -0.84800
Zr211      Zr  0.83951815  0.71415455  0.71808905     2.26400
Zr212      Zr  0.87446525  0.69405392  0.70292167     2.06300
Zr213      Zr  0.74576268  0.61390153  0.71771785     2.10000
Zr214      Zr  0.84770892  0.61778767  0.71656817     1.78800
O215        O  0.68084321  0.60722952  0.71863629    -0.93600
O216        O  0.91222280  0.62479453  0.71484947    -0.41400
O217        O  0.81270448  0.64678617  0.72117362    -0.78000
O218        O  0.87575931  0.68552333  0.71383529    -0.96700
O219        O  0.83941830  0.72341290  0.70727351    -0.90000
O220        O  0.77221312  0.68153737  0.71500150    -0.92900
C221        C  0.81796026  0.53444503  0.70766514     1.00900
C222        C  0.69109651  0.53000399  0.70880235     1.13800
C223        C  0.84390099  0.63587214  0.68981000     1.04600
O224        O  0.93554727  0.69262175  0.70206744    -0.95000
O225        O  0.92626422  0.75625771  0.70701657    -0.90800
O226        O  0.90554261  0.76879470  0.71609340    -0.83900
C227        C  0.93117075  0.77761061  0.71179626     1.11200
O228        O  0.72825809  0.66482782  0.69537454    -0.97000
Zr229      Zr  0.77228030  0.69072268  0.70422606     1.88900
O230        O  0.82806255  0.76843280  0.71643894    -0.73600
O231        O  0.89402660  0.74580853  0.69523205    -0.52900
O232        O  0.79701242  0.73624852  0.69555533    -0.97600
O233        O  0.70863924  0.68411528  0.70674472    -0.54800
O234        O  0.78923801  0.75543740  0.70802894    -0.74200
C235        C  0.80995267  0.77778383  0.71247507     0.98200
O236        O  0.87935858  0.73853148  0.72742598    -0.63000
O237        O  0.73469798  0.56716886  0.72592837    -0.57800
O238        O  0.80101829  0.70882419  0.72712793    -0.94500
O239        O  0.74570450  0.64856973  0.72708794    -0.92900
O240        O  0.82131253  0.57302778  0.72531317    -0.93200
O241        O  0.89205662  0.64294971  0.72536391    -0.92000
C242        C  0.76837237  0.68258593  0.72949773     1.17000
H243        H  0.76838291  0.55718936  0.71441046     0.33000
H244        H  0.90253461  0.69926337  0.71532536     0.43800
H245        H  0.75801751  0.69262516  0.71701743     0.37400
H246        H  0.80501560  0.66463519  0.69523403     0.33800
H247        H  0.90880149  0.59851639  0.71574334     0.25600
H248        H  0.91518909  0.74530670  0.69281969     0.31600
H249        H  0.82333756  0.75736279  0.69687815     0.37500
H250        H  0.83759563  0.56027453  0.72555591     0.31900
H251        H  0.75460596  0.58271545  0.72910146     0.30800
H252        H  0.66735525  0.58691409  0.72185184     0.32500
H253        H  0.71353794  0.70180062  0.71030143     0.31500
H254        H  0.88802828  0.66408274  0.72706727     0.35500
H255        H  0.86647047  0.71698024  0.73047217     0.28200
H256        H  0.74744635  0.54090193  0.69234760     0.32400
H257        H  0.72130899  0.68516342  0.69432034     0.35300
H258        H  0.70929549  0.56125821  0.72779109     0.27900
H259        H  0.90429226  0.73907988  0.72646701     0.40700
H260        H  0.95025965  0.71155213  0.69873128     0.30800
H261        H  0.91612731  0.62783178  0.71033235     0.38400
H262        H  0.69305345  0.65727191  0.70846959     0.30300
H263        H  0.87148852  0.73603519  0.69235249     0.30300
H264        H  0.73772903  0.57481529  0.69126096     0.30600
Zr265      Zr  0.38844733  0.20351392  0.61365147     2.17500
O266        O  0.40645305  0.18116101  0.60437498    -0.51800
O267        O  0.44657695  0.26781619  0.61476697    -0.75000
O268        O  0.38306182  0.23826079  0.60476585    -0.81700
O269        O  0.42515678  0.15281425  0.62405235    -0.83500
O270        O  0.32591870  0.23956402  0.60551015    -0.79100
O271        O  0.43912863  0.18567423  0.61494737    -0.90700
O272        O  0.43559309  0.29651026  0.62303112    -0.76700
O273        O  0.35986180  0.24173877  0.61686816    -0.86200
O274        O  0.40032066  0.21282410  0.62445939    -0.85900
O275        O  0.31974436  0.16553685  0.61113595    -0.72600
O276        O  0.35798122  0.13937255  0.61819148    -0.84800
Zr277      Zr  0.27068237  0.14753607  0.63000991     2.26400
Zr278      Zr  0.29095678  0.20332702  0.61474722     2.06300
Zr279      Zr  0.36801453  0.14897140  0.62906057     2.10000
Zr280      Zr  0.37182880  0.25113192  0.62758404     1.78800
O281        O  0.35074155  0.08064656  0.63058468    -0.93600
O282        O  0.36514885  0.30818601  0.62519211    -0.41400
O283        O  0.33957373  0.18744076  0.63222762    -0.78000
O284        O  0.30208303  0.21310925  0.62562854    -0.96700
O285        O  0.25937455  0.13866227  0.61917491    -0.90000
O286        O  0.29930109  0.10912517  0.62682702    -0.92900
C287        C  0.45691389  0.29659888  0.61852419     1.00900
C288        C  0.44577804  0.16655599  0.61913673     1.13800
C289        C  0.35833705  0.24809304  0.60276923     1.04600
O290        O  0.28738898  0.26356780  0.61467097    -0.95000
O291        O  0.22852113  0.19331796  0.61882993    -0.90800
O292        O  0.22055449  0.16564310  0.62828502    -0.83900
C293        C  0.20936318  0.17971923  0.62389521     1.11200
O294        O  0.30377060  0.07889641  0.60637008    -0.97000
Zr295      Zr  0.28945601  0.10195170  0.61590782     1.88900
O296        O  0.21924704  0.07754998  0.62930543    -0.73600
O297        O  0.24672560  0.17457527  0.60599635    -0.52900
O298        O  0.23973028  0.08246096  0.60788390    -0.97600
O299        O  0.30341560  0.04821628  0.61682733    -0.54800
O300        O  0.23073224  0.05151918  0.62074686    -0.74200
C301        C  0.21060418  0.04896076  0.62553429     0.98200
O302        O  0.22596470  0.14399160  0.63814421    -0.63000
O303        O  0.42176303  0.16619957  0.63631156    -0.57800
O304        O  0.29450218  0.14759395  0.64052593    -0.94500
O305        O  0.35291549  0.14901987  0.63994994    -0.92900
O306        O  0.41914557  0.27139254  0.63599843    -0.93200
O307        O  0.35475062  0.27505010  0.63675933    -0.92000
C308        C  0.32503791  0.14916867  0.64303403     1.17000
H309        H  0.42812749  0.22590602  0.62536398     0.33000
H310        H  0.29009160  0.22762923  0.62721851     0.43800
H311        H  0.28820191  0.08429850  0.62897892     0.37400
H312        H  0.31653432  0.16234306  0.60672086     0.33800
H313        H  0.38975442  0.33093733  0.62673984     0.25600
H314        H  0.22207959  0.15317761  0.60778339     0.31600
H315        H  0.21688853  0.08177031  0.60994380     0.37500
H316        H  0.43347797  0.25689838  0.63533788     0.31900
H317        H  0.42849174  0.14509143  0.63593391     0.30800
H318        H  0.35676942  0.07914882  0.63497491     0.32500
H319        H  0.29248475  0.03602709  0.62087586     0.31500
H320        H  0.33492866  0.25088686  0.63888909     0.35500
H321        H  0.22010205  0.12062064  0.64065924     0.28200
H322        H  0.42799371  0.20526952  0.60247737     0.32400
H323        H  0.32473843  0.10292665  0.60436925     0.35300
H324        H  0.44466427  0.18993783  0.63457608     0.27900
H325        H  0.24148915  0.16690757  0.64086720     0.40700
H326        H  0.26889959  0.25988215  0.61128752     0.30800
H327        H  0.36741046  0.31070151  0.62064905     0.38400
H328        H  0.33228549  0.06116685  0.61737518     0.30300
H329        H  0.24011009  0.19486573  0.60475020     0.30300
H330        H  0.38382255  0.17256206  0.60154517     0.30600
Zr331      Zr  0.38643331  0.16999284  0.70317622     2.17500
O332        O  0.42961688  0.16470135  0.69560863    -0.51800
O333        O  0.43593779  0.23960632  0.70376675    -0.75000
O334        O  0.37277728  0.18037568  0.69252620    -0.81700
O335        O  0.43170692  0.13659009  0.71589049    -0.83500
O336        O  0.31244016  0.17477847  0.69221426    -0.79100
O337        O  0.43818552  0.15628255  0.70589355    -0.90700
O338        O  0.41759839  0.26755566  0.71124206    -0.76700
O339        O  0.35063660  0.20326581  0.70511673    -0.86200
O340        O  0.39450488  0.18558330  0.71389697    -0.85900
O341        O  0.31994367  0.12287433  0.70034198    -0.72600
O342        O  0.36086857  0.10812678  0.70850973    -0.84800
Zr343      Zr  0.26472221  0.11044923  0.71853466     2.26400
Zr344      Zr  0.28397431  0.15613793  0.70249248     2.06300
Zr345      Zr  0.36764406  0.12437624  0.71928659     2.10000
Zr346      Zr  0.35751973  0.21718037  0.71590458     1.78800
O347        O  0.38096620  0.07221538  0.72221954    -0.93600
O348        O  0.34251846  0.26860665  0.71325089    -0.41400
O349        O  0.33103905  0.15653490  0.72152180    -0.78000
O350        O  0.29072259  0.17236008  0.71324351    -0.96700
O351        O  0.25719028  0.09488601  0.70783390    -0.90000
O352        O  0.30122347  0.07803174  0.71653720    -0.92900
C353        C  0.44117559  0.26918699  0.70702093     1.00900
C354        C  0.45015840  0.14661201  0.71073242     1.13800
C355        C  0.34413691  0.18016566  0.68960088     1.04600
O356        O  0.27956838  0.21412684  0.69986440    -0.95000
O357        O  0.22136568  0.14627520  0.70629239    -0.90800
O358        O  0.20862925  0.11810853  0.71581901    -0.83900
C359        C  0.20007870  0.13274501  0.71116227     1.11200
O360        O  0.31840154  0.03984855  0.69747393    -0.97000
Zr361      Zr  0.29358715  0.06248298  0.70591067     1.88900
O362        O  0.21175008  0.04331098  0.71724479    -0.73600
O363        O  0.23376486  0.11586123  0.69495607    -0.52900
O364        O  0.25028926  0.03463246  0.69702787    -0.97600
O365        O  0.30809244  0.01230328  0.70956544    -0.54800
O366        O  0.22949732  0.01389528  0.70994647    -0.74200
C367        C  0.20501583  0.01355245  0.71392067     0.98200
O368        O  0.24102844  0.13093725  0.72740119    -0.63000
O369        O  0.40812750  0.16800911  0.72753578    -0.57800
O370        O  0.27055484  0.08092051  0.72808655    -0.94500
O371        O  0.33290296  0.09113637  0.72866012    -0.92900
O372        O  0.40256317  0.24403647  0.72460631    -0.93200
O373        O  0.33229523  0.23905762  0.72435914    -0.92000
C374        C  0.29792600  0.07752811  0.73078708     1.17000
H375        H  0.42189525  0.20234139  0.71494214     0.33000
H376        H  0.27579746  0.18502070  0.71428982     0.43800
H377        H  0.29134953  0.05392528  0.71886268     0.37400
H378        H  0.31797167  0.11565279  0.69604851     0.33800
H379        H  0.36417438  0.29291913  0.71509023     0.25600
H380        H  0.23159028  0.13488483  0.69221952     0.31600
H381        H  0.22897439  0.04073453  0.69771700     0.37500
H382        H  0.42914554  0.25395518  0.72284728     0.31900
H383        H  0.41196978  0.15073570  0.73043711     0.30800
H384        H  0.39667796  0.08174214  0.72605400     0.32500
H385        H  0.28859655  0.99805028  0.71285402     0.31500
H386        H  0.31176408  0.21446132  0.72629147     0.35500
H387        H  0.26254205  0.14052854  0.73047440     0.28200
H388        H  0.44219290  0.18986786  0.69330839     0.32400
H389        H  0.30205158  0.01077987  0.69747780     0.35300
H390        H  0.43435226  0.18466539  0.72566096     0.27900
H391        H  0.24124353  0.15512527  0.72603572     0.40700
H392        H  0.26017369  0.20540432  0.69646039     0.30800
H393        H  0.34705880  0.27233916  0.70875172     0.38400
H394        H  0.33350744  0.02713749  0.71176209     0.30300
H395        H  0.24607038  0.10423594  0.69235284     0.30300
H396        H  0.41215301  0.14452955  0.69259763     0.30600
Zr397      Zr  0.20940535  0.38355411  0.88544485     2.17500
O398        O  0.18983387  0.40393120  0.89478729    -0.51800
O399        O  0.27363838  0.44195725  0.88405857    -0.75000
O400        O  0.24474887  0.37908175  0.89438615    -0.81700
O401        O  0.16961531  0.42714819  0.87388083    -0.83500
O402        O  0.23853805  0.31816453  0.89443132    -0.79100
O403        O  0.19290320  0.43466926  0.88369176    -0.90700
O404        O  0.30414566  0.42987823  0.87616860    -0.76700
O405        O  0.24538574  0.35144169  0.88298048    -0.86200
O406        O  0.22333955  0.39496563  0.87469617    -0.85900
O407        O  0.16693716  0.31507142  0.88791632    -0.72600
O408        O  0.14686953  0.35607322  0.88030707    -0.84800
Zr409      Zr  0.15592580  0.26693826  0.86911764     2.26400
Zr410      Zr  0.20326976  0.28307435  0.88508742     2.06300
Zr411      Zr  0.16140593  0.36615817  0.86954446     2.10000
Zr412      Zr  0.26037354  0.36361348  0.87237977     1.78800
O413        O  0.09539313  0.35517570  0.86771080    -0.93600
O414        O  0.31797633  0.36477472  0.87686088    -0.41400
O415        O  0.19889811  0.33543586  0.86700135    -0.78000
O416        O  0.21865303  0.29430094  0.87433043    -0.96700
O417        O  0.14168059  0.25573662  0.87983701    -0.90000
O418        O  0.11875155  0.29795234  0.87159520    -0.92900
C419        C  0.30270763  0.45228085  0.88035301     1.00900
C420        C  0.18022217  0.44549132  0.87905613     1.13800
C421        C  0.25106981  0.35266491  0.89674648     1.04600
O422        O  0.26117303  0.27555378  0.88555501    -0.95000
O423        O  0.18562591  0.21703940  0.88136693    -0.90800
O424        O  0.15788298  0.20868451  0.87192572    -0.83900
C425        C  0.16964461  0.19651938  0.87646622     1.11200
O426        O  0.08262255  0.31065392  0.89097596    -0.97000
Zr427      Zr  0.10566152  0.28751555  0.88238560     1.88900
O428        O  0.08663633  0.21394388  0.86939186    -0.73600
O429        O  0.17192322  0.24029558  0.89391206    -0.52900
O430        O  0.08073171  0.23821519  0.89053543    -0.97600
O431        O  0.04940306  0.29495646  0.87964710    -0.54800
O432        O  0.05856992  0.22609878  0.87765694    -0.74200
C433        C  0.05765686  0.20489006  0.87310747     0.98200
O434        O  0.17995301  0.24178566  0.86084739    -0.63000
O435        O  0.18550489  0.41730921  0.86167622    -0.57800
O436        O  0.14582788  0.28231308  0.85858782    -0.94500
O437        O  0.15705700  0.34485623  0.85891301    -0.92900
O438        O  0.28530395  0.40446681  0.86320041    -0.93200
O439        O  0.28758500  0.33744447  0.86489182    -0.92000
C440        C  0.15136031  0.31405450  0.85595456     1.17000
H441        H  0.23747502  0.42256929  0.87366050     0.33000
H442        H  0.23206488  0.28046139  0.87305528     0.43800
H443        H  0.09507683  0.28736153  0.86914293     0.37400
H444        H  0.16187758  0.31217793  0.89229767     0.33800
H445        H  0.34067535  0.38668002  0.87473076     0.25600
H446        H  0.14902021  0.21658371  0.89217248     0.31600
H447        H  0.08142248  0.21526107  0.88878034     0.37500
H448        H  0.26240993  0.39441018  0.86038974     0.31900
H449        H  0.16762849  0.42828476  0.86181751     0.30800
H450        H  0.09391801  0.37562237  0.87018025     0.32500
H451        H  0.02693287  0.27350445  0.88188771     0.31500
H452        H  0.26526072  0.32089893  0.86212648     0.35500
H453        H  0.19766538  0.26495585  0.85831414     0.28200
H454        H  0.21470730  0.42395288  0.89672971     0.32400
H455        H  0.10334116  0.31899387  0.89416322     0.35300
H456        H  0.21096548  0.43853570  0.86327189     0.27900
H457        H  0.19829170  0.23455999  0.86279283     0.40700
H458        H  0.28368079  0.30278572  0.88569928     0.30800
H459        H  0.31968633  0.37438282  0.88113635     0.38400
H460        H  0.04389685  0.28717596  0.87525899     0.30300
H461        H  0.19044592  0.23129082  0.89514447     0.30300
H462        H  0.17942778  0.38091682  0.89757842     0.30600
Zr463      Zr  0.17522657  0.38864937  0.79591274     2.17500
O464        O  0.18327035  0.43850695  0.80342398    -0.51800
O465        O  0.24439455  0.44008511  0.79452913    -0.75000
O466        O  0.18286788  0.37225719  0.80660256    -0.81700
O467        O  0.13357630  0.43082291  0.78414166    -0.83500
O468        O  0.17927440  0.31274542  0.80673569    -0.79100
O469        O  0.15229142  0.43484078  0.79414810    -0.90700
O470        O  0.26835956  0.42548530  0.78605451    -0.76700
O471        O  0.21008833  0.35526141  0.79342564    -0.86200
O472        O  0.18672024  0.39655613  0.78505664    -0.85900
O473        O  0.12991856  0.32132624  0.79877350    -0.72600
O474        O  0.11161590  0.36114147  0.79099966    -0.84800
Zr475      Zr  0.11504765  0.26680898  0.78049161     2.26400
Zr476      Zr  0.16556642  0.28821286  0.79619614     2.06300
Zr477      Zr  0.12392780  0.36817975  0.78012384     2.10000
Zr478      Zr  0.21990262  0.36167025  0.78251644     1.78800
O479        O  0.06975938  0.37955604  0.77775998    -0.93600
O480        O  0.27511370  0.35359837  0.78564636    -0.41400
O481        O  0.15770317  0.33370004  0.77733315    -0.78000
O482        O  0.17839340  0.29481532  0.78532786    -0.96700
O483        O  0.10267591  0.25943025  0.79129753    -0.90000
O484        O  0.08082141  0.30104004  0.78290547    -0.92900
C485        C  0.27143586  0.44823219  0.79049323     1.00900
C486        C  0.14187861  0.44750446  0.78947649     1.13800
C487        C  0.18262112  0.34333928  0.80946051     1.04600
O488        O  0.23046032  0.29768752  0.79846750    -0.95000
O489        O  0.15925487  0.22761144  0.79215056    -0.90800
O490        O  0.12859531  0.21397597  0.78286840    -0.83900
C491        C  0.14532268  0.20613963  0.78730458     1.11200
O492        O  0.04686594  0.32549549  0.80101507    -0.97000
Zr493      Zr  0.06827387  0.29339076  0.79358828     1.88900
O494        O  0.05018765  0.21113731  0.78230064    -0.73600
O495        O  0.13479179  0.23236354  0.80322441    -0.52900
O496        O  0.04486175  0.25576832  0.80310836    -0.97600
O497        O  0.01170530  0.29702571  0.78975843    -0.54800
O498        O  0.02390330  0.22551848  0.79052883    -0.74200
C499        C  0.02300278  0.20201951  0.78632092     0.98200
O500        O  0.13260049  0.24256598  0.77134589    -0.63000
O501        O  0.16478364  0.41093123  0.77183354    -0.57800
O502        O  0.08169593  0.27032843  0.77124115    -0.94500
O503        O  0.08679860  0.33057539  0.77106614    -0.92900
O504        O  0.24350734  0.40340961  0.77339871    -0.93200
O505        O  0.24128629  0.33321133  0.77446954    -0.92000
C506        C  0.07483481  0.29613396  0.76877405     1.17000
H507        H  0.20200076  0.42402273  0.78394746     0.33000
H508        H  0.19196787  0.28111333  0.78408179     0.43800
H509        H  0.05598817  0.28994670  0.78076332     0.37400
H510        H  0.12209505  0.31824954  0.80304419     0.33800
H511        H  0.29793123  0.37405708  0.78333081     0.25600
H512        H  0.15700786  0.23268231  0.80544467     0.31600
H513        H  0.06078062  0.24274497  0.80355461     0.37500
H514        H  0.24225588  0.42727973  0.77447864     0.31900
H515        H  0.15829734  0.39346759  0.76820170     0.30800
H516        H  0.07985768  0.39944073  0.77442417     0.32500
H517        H  0.99806152  0.27470452  0.78686280     0.31500
H518        H  0.21725331  0.31655141  0.77203251     0.35500
H519        H  0.14054477  0.26356531  0.76821625     0.28200
H520        H  0.20734835  0.44516725  0.80580470     0.32400
H521        H  0.01893577  0.30630138  0.80189571     0.35300
H522        H  0.15341275  0.42786701  0.77087908     0.27900
H523        H  0.15754266  0.24339228  0.77240962     0.40700
H524        H  0.23947121  0.29224762  0.79451961     0.30800
H525        H  0.28042448  0.36268440  0.78998046     0.38400
H526        H  0.02309392  0.32075119  0.78711067     0.30300
H527        H  0.12136311  0.23970198  0.80637523     0.30300
H528        H  0.16128162  0.42508810  0.80638078     0.30600
Zr529      Zr  0.60261122  0.81576249  0.88590238     2.17500
O530        O  0.58319021  0.77653186  0.89530999    -0.51800
O531        O  0.54711484  0.82590617  0.88470454    -0.75000
O532        O  0.60879809  0.85689515  0.89469370    -0.81700
O533        O  0.55669108  0.73255890  0.87453362    -0.83500
O534        O  0.67158758  0.90829864  0.89496541    -0.79100
O535        O  0.54810908  0.74973790  0.88418223    -0.90700
O536        O  0.56307843  0.87175640  0.87718730    -0.76700
O537        O  0.63785256  0.88387039  0.88341893    -0.86200
O538        O  0.59195432  0.81934762  0.87515788    -0.85900
O539        O  0.67001904  0.83806734  0.88850062    -0.72600
O540        O  0.62703095  0.77811666  0.88078920    -0.84800
Zr541      Zr  0.72024589  0.87292769  0.86967943     2.26400
Zr542      Zr  0.70545077  0.90612489  0.88559639     2.06300
Zr543      Zr  0.61788789  0.78345646  0.87003064     2.10000
Zr544      Zr  0.62688011  0.88769031  0.87280766     1.78800
O545        O  0.62508002  0.72621507  0.86806663    -0.93600
O546        O  0.63922451  0.95130142  0.87660920    -0.41400
O547        O  0.65259068  0.85179755  0.86752925    -0.78000
O548        O  0.69570088  0.91143257  0.87476236    -0.96700
O549        O  0.73066580  0.86937591  0.88043128    -0.90000
O550        O  0.68536461  0.80467589  0.87222518    -0.92900
C551        C  0.53950189  0.84792711  0.88128689     1.00900
C552        C  0.53756872  0.72574429  0.87961412     1.13800
C553        C  0.63650023  0.88831482  0.89717097     1.04600
O554        O  0.71657833  0.97223773  0.88729891    -0.95000
O555        O  0.77023722  0.95537437  0.88175692    -0.90800
O556        O  0.77649138  0.93692938  0.87210909    -0.83900
C557        C  0.78944006  0.96072336  0.87670036     1.11200
O558        O  0.66665329  0.75444079  0.89153246    -0.97000
Zr559      Zr  0.69470174  0.80154882  0.88308332     1.88900
O560        O  0.76882020  0.85060077  0.87021675    -0.73600
O561        O  0.74951085  0.91140333  0.89392434    -0.52900
O562        O  0.74067293  0.82405331  0.89170969    -0.97600
O563        O  0.68403495  0.73624338  0.88062406    -0.54800
O564        O  0.75547892  0.81191522  0.87867733    -0.74200
C565        C  0.77661117  0.83000734  0.87398794     0.98200
O566        O  0.75688754  0.90890170  0.86054164    -0.63000
O567        O  0.56438938  0.75791405  0.86255000    -0.57800
O568        O  0.69792728  0.85285986  0.85899632    -0.94500
O569        O  0.63672513  0.79931589  0.85927584    -0.92900
O570        O  0.58229645  0.87208028  0.86411179    -0.93200
O571        O  0.64974042  0.93551008  0.86444615    -0.92000
C572        C  0.66642322  0.82619467  0.85633301     1.17000
H573        H  0.56438849  0.80760097  0.87414743     0.33000
H574        H  0.71051870  0.93859943  0.87347426     0.43800
H575        H  0.69463508  0.79016772  0.86983104     0.37400
H576        H  0.67226922  0.83547555  0.89288658     0.33800
H577        H  0.62194451  0.95750310  0.87409872     0.25600
H578        H  0.75702506  0.93690058  0.89591958     0.31600
H579        H  0.76227426  0.85024273  0.89044285     0.37500
H580        H  0.58853399  0.85576734  0.86137555     0.31900
H581        H  0.55384342  0.72912714  0.86244539     0.30800
H582        H  0.60118465  0.70379342  0.86986134     0.32500
H583        H  0.70612004  0.73504087  0.88261677     0.31500
H584        H  0.67284469  0.93497430  0.86273153     0.35500
H585        H  0.75826653  0.93479053  0.86072581     0.28200
H586        H  0.56388388  0.78209193  0.89733860     0.32400
H587        H  0.68813508  0.75038010  0.89306583     0.35300
H588        H  0.54335882  0.76126006  0.86447142     0.27900
H589        H  0.78423159  0.91465397  0.86119667     0.40700
H590        H  0.69162515  0.97084926  0.88607578     0.30800
H591        H  0.62720922  0.94579530  0.88076539     0.38400
H592        H  0.68943781  0.73688553  0.87615716     0.30300
H593        H  0.73252756  0.89142141  0.89699242     0.30300
H594        H  0.60670702  0.78900077  0.89800253     0.30600
Zr595      Zr  0.60625786  0.77897030  0.79620723     2.17500
O596        O  0.56475217  0.73093278  0.80394049    -0.51800
O597        O  0.55906149  0.80211858  0.79550466    -0.75000
O598        O  0.62039933  0.80520510  0.80677078    -0.81700
O599        O  0.56092455  0.69638298  0.78422261    -0.83500
O600        O  0.68094790  0.85984744  0.80691706    -0.79100
O601        O  0.54931799  0.71653138  0.79342750    -0.90700
O602        O  0.57272114  0.83719898  0.78663454    -0.76700
O603        O  0.64170681  0.84721271  0.79365008    -0.86200
O604        O  0.59924091  0.78211160  0.78531174    -0.85900
O605        O  0.67275274  0.79946086  0.79922738    -0.72600
O606        O  0.63249490  0.74081549  0.79157375    -0.84800
Zr607      Zr  0.72795795  0.83637940  0.78098061     2.26400
Zr608      Zr  0.70832220  0.86799158  0.79657775     2.06300
Zr609      Zr  0.62623453  0.74549741  0.78065143     2.10000
Zr610      Zr  0.63534718  0.84984941  0.78271915     1.78800
O611        O  0.61749559  0.67986379  0.77954480    -0.93600
O612        O  0.64911376  0.91654206  0.78482563    -0.41400
O613        O  0.66160715  0.81343684  0.77777003    -0.78000
O614        O  0.70198243  0.87388501  0.78567850    -0.96700
O615        O  0.73537689  0.83213591  0.79178217    -0.90000
O616        O  0.69284029  0.76818691  0.78355418    -0.92900
C617        C  0.55117850  0.82047134  0.79134988     1.00900
C618        C  0.53922703  0.69208660  0.78893393     1.13800
C619        C  0.64935461  0.83397398  0.80960666     1.04600
O620        O  0.70911195  0.92952957  0.79847970    -0.95000
O621        O  0.77222068  0.91893515  0.79283972    -0.90800
O622        O  0.78299617  0.90103554  0.78339697    -0.83900
C623        C  0.79297560  0.92520777  0.78793347     1.11200
O624        O  0.67002597  0.71368437  0.80222842    -0.97000
Zr625      Zr  0.70004237  0.76427485  0.79430551     1.88900
O626        O  0.78291044  0.82638463  0.78289962    -0.73600
O627        O  0.75978635  0.88229647  0.80412750    -0.52900
O628        O  0.73728055  0.78241896  0.80390686    -0.97600
O629        O  0.69718356  0.70315811  0.79116156    -0.54800
O630        O  0.76725044  0.78559290  0.79115212    -0.74200
C631        C  0.79113565  0.80787394  0.78696689     0.98200
O632        O  0.74966792  0.87678109  0.77168641    -0.63000
O633        O  0.58427216  0.73637792  0.77179265    -0.57800
O634        O  0.72407788  0.79935726  0.77177498    -0.94500
O635        O  0.66262946  0.74586118  0.77146697    -0.92900
O636        O  0.59349085  0.83140084  0.77360439    -0.93200
O637        O  0.66094834  0.89508303  0.77403079    -0.92000
C638        C  0.69747068  0.76741014  0.76925728     1.17000
H639        H  0.57193852  0.77099931  0.78416089     0.33000
H640        H  0.71685417  0.90110508  0.78442376     0.43800
H641        H  0.70352338  0.75385575  0.78146336     0.37400
H642        H  0.67468458  0.79526251  0.80356390     0.33800
H643        H  0.62340703  0.91389895  0.78591209     0.25600
H644        H  0.76156746  0.90421089  0.80663659     0.31600
H645        H  0.76258043  0.80621072  0.80289047     0.37500
H646        H  0.57227072  0.80406434  0.77436887     0.31900
H647        H  0.60042545  0.75911831  0.76907452     0.30800
H648        H  0.59744963  0.66729492  0.77626344     0.32500
H649        H  0.72281544  0.71107385  0.78918728     0.31500
H650        H  0.67552504  0.88547253  0.77152728     0.35500
H651        H  0.72675626  0.86456745  0.76886743     0.28200
H652        H  0.55157476  0.74315054  0.80618153     0.32400
H653        H  0.68931312  0.70502942  0.80310423     0.35300
H654        H  0.58245615  0.71349341  0.76956359     0.27900
H655        H  0.75138555  0.90193686  0.77288491     0.40700
H656        H  0.72039102  0.93759048  0.80266573     0.30800
H657        H  0.66412522  0.92396749  0.78873231     0.38400
H658        H  0.67793404  0.69285673  0.78774203     0.30300
H659        H  0.74847293  0.85939932  0.80694779     0.30300
H660        H  0.58297172  0.72964867  0.80696564     0.30600
Zr661      Zr  0.17295496  0.77440948  0.88625714     2.17500
O662        O  0.21465062  0.79136346  0.89538362    -0.51800
O663        O  0.16402425  0.70947841  0.88475631    -0.75000
O664        O  0.13482285  0.74312661  0.89546111    -0.81700
O665        O  0.25768566  0.81757940  0.87510726    -0.83500
O666        O  0.07661046  0.74248163  0.89483865    -0.79100
O667        O  0.24113858  0.79194511  0.88477153    -0.90700
O668        O  0.11923749  0.67979704  0.87708072    -0.76700
O669        O  0.10528106  0.73873523  0.88338740    -0.86200
O670        O  0.17164921  0.76281123  0.87544995    -0.85900
O671        O  0.14599757  0.81514254  0.88910582    -0.72600
O672        O  0.20873992  0.83774757  0.88152174    -0.84800
Zr673      Zr  0.11317188  0.83417869  0.87040596     2.26400
Zr674      Zr  0.07872415  0.78025432  0.88578293     2.06300
Zr675      Zr  0.20541540  0.82595550  0.87067924     2.10000
Zr676      Zr  0.10402986  0.72776153  0.87264648     1.78800
O677        O  0.25937875  0.89207514  0.86863143    -0.93600
O678        O  0.03940611  0.67204886  0.87501994    -0.41400
O679        O  0.13771601  0.79095982  0.86791091    -0.78000
O680        O  0.07625919  0.76907420  0.87487515    -0.96700
O681        O  0.11404155  0.84426526  0.88122996    -0.90000
O682        O  0.18105505  0.86928323  0.87325736    -0.92900
C683        C  0.14279744  0.68018198  0.88123450     1.00900
C684        C  0.26511153  0.80612878  0.88021655     1.13800
C685        C  0.10055693  0.73379720  0.89750997     1.04600
O686        O  0.01356708  0.72265523  0.88694453    -0.95000
O687        O  0.02750732  0.79310608  0.88207437    -0.90800
O688        O  0.04712645  0.82141185  0.87268834    -0.83900
C689        C  0.02234474  0.80816390  0.87714723     1.11200
O690        O  0.22141575  0.89189756  0.89348133    -0.97000
Zr691      Zr  0.18141151  0.87802103  0.88420620     1.88900
O692        O  0.13214596  0.90361896  0.87155559    -0.73600
O693        O  0.07123881  0.81560831  0.89441132    -0.52900
O694        O  0.15298338  0.89973170  0.89222128    -0.97600
O695        O  0.24862333  0.93266215  0.88331165    -0.54800
O696        O  0.17377341  0.92964629  0.87968194    -0.74200
C697        C  0.15399059  0.93217081  0.87519810     0.98200
O698        O  0.07931537  0.83980387  0.86135127    -0.63000
O699        O  0.23532068  0.80278626  0.86312803    -0.57800
O700        O  0.13479849  0.83601131  0.85972110    -0.94500
O701        O  0.18742760  0.82682396  0.85997509    -0.92900
O702        O  0.13010615  0.70803135  0.86403034    -0.93200
O703        O  0.06119411  0.70629025  0.86364400    -0.92000
C704        C  0.16123746  0.83094279  0.85704517     1.17000
H705        H  0.18469569  0.74823198  0.87440869     0.33000
H706        H  0.04935174  0.75595231  0.87344433     0.43800
H707        H  0.19525547  0.89394445  0.87107327     0.37400
H708        H  0.14720388  0.81860651  0.89352499     0.33800
H709        H  0.04142330  0.64852443  0.87399606     0.25600
H710        H  0.06614309  0.83550265  0.89248381     0.31600
H711        H  0.13072575  0.90050260  0.89021063     0.37500
H712        H  0.15345538  0.73269359  0.86264264     0.31900
H713        H  0.26383136  0.82219178  0.86320731     0.30800
H714        H  0.27670467  0.89860113  0.87228076     0.32500
H715        H  0.24756078  0.95588483  0.88484473     0.31500
H716        H  0.05325407  0.72643572  0.86311921     0.35500
H717        H  0.05439016  0.81440054  0.86102652     0.28200
H718        H  0.20845447  0.76598553  0.89729503     0.32400
H719        H  0.22375129  0.91623636  0.89525106     0.35300
H720        H  0.23294299  0.77839516  0.86488574     0.27900
H721        H  0.07138849  0.85938246  0.86243512     0.40700
H722        H  0.00427859  0.71396570  0.88268046     0.30800
H723        H  0.03768004  0.67176369  0.87957454     0.38400
H724        H  0.25322203  0.93724541  0.87882752     0.30300
H725        H  0.04582220  0.79646106  0.89630757     0.30300
H726        H  0.20426154  0.80343972  0.89828745     0.30600
Zr727      Zr  0.21660193  0.81666602  0.79715092     2.17500
O728        O  0.26623122  0.82393071  0.80463978    -0.51800
O729        O  0.19478447  0.74586017  0.79635312    -0.75000
O730        O  0.19125702  0.80589932  0.80778076    -0.81700
O731        O  0.30050542  0.85952081  0.78536704    -0.83500
O732        O  0.13395371  0.80701356  0.80783517    -0.79100
O733        O  0.28113587  0.82762741  0.79453793    -0.90700
O734        O  0.15108039  0.72018010  0.78846905    -0.76700
O735        O  0.14855129  0.78190628  0.79465055    -0.86200
O736        O  0.21356841  0.80656061  0.78626017    -0.85900
O737        O  0.19401915  0.86136776  0.80006032    -0.72600
O738        O  0.25249116  0.88112809  0.79244021    -0.84800
Zr739      Zr  0.15494422  0.87757761  0.78199035     2.26400
Zr740      Zr  0.12540750  0.82584098  0.79750318     2.06300
Zr741      Zr  0.24802185  0.87028742  0.78151176     2.10000
Zr742      Zr  0.14561705  0.77271985  0.78374674     1.78800
O743        O  0.31099224  0.92991979  0.77986016    -0.93600
O744        O  0.07811041  0.72013520  0.78541148    -0.41400
O745        O  0.17979438  0.83564417  0.77877746    -0.78000
O746        O  0.11950286  0.81377712  0.78663510    -0.96700
O747        O  0.15936167  0.88915907  0.79276999    -0.90000
O748        O  0.22327228  0.91262420  0.78437440    -0.92900
C749        C  0.17104248  0.71705072  0.79286700     1.00900
C750        C  0.30596338  0.84322844  0.79012901     1.13800
C751        C  0.16138555  0.80405815  0.81058006     1.04600
O752        O  0.06704446  0.76170115  0.79900912    -0.95000
O753        O  0.07249168  0.83549258  0.79372803    -0.90800
O754        O  0.09089924  0.86873968  0.78464090    -0.83900
C755        C  0.06625950  0.85180406  0.78905237     1.11200
O756        O  0.27240424  0.94352360  0.80388296    -0.97000
Zr757      Zr  0.22758024  0.92409096  0.79511544     1.88900
O758        O  0.16684859  0.94371462  0.78344969    -0.73600
O759        O  0.10645445  0.85998262  0.80493230    -0.52900
O760        O  0.20662022  0.94886768  0.80376117    -0.97600
O761        O  0.29248135  0.97750396  0.79215793    -0.54800
O762        O  0.21159587  0.97265617  0.79114717    -0.74200
C763        C  0.18836836  0.97286497  0.78698376     0.98200
O764        O  0.11119535  0.85699891  0.77308727    -0.63000
O765        O  0.25847090  0.83677815  0.77288185    -0.57800
O766        O  0.18980021  0.90892254  0.77260141    -0.94500
O767        O  0.24414768  0.90276744  0.77206031    -0.92900
O768        O  0.17120891  0.74774906  0.77580050    -0.93200
O769        O  0.10582480  0.75437451  0.77441410    -0.92000
C770        C  0.22101557  0.91425230  0.76985527     1.17000
H771        H  0.22543293  0.79090719  0.78512892     0.33000
H772        H  0.09210937  0.80069612  0.78539394     0.43800
H773        H  0.23660103  0.93727243  0.78218589     0.37400
H774        H  0.19794815  0.86788888  0.80443626     0.33800
H775        H  0.07619116  0.69710135  0.78321646     0.25600
H776        H  0.08219758  0.83906064  0.80689119     0.31600
H777        H  0.18040767  0.94457116  0.80256310     0.37500
H778        H  0.18806959  0.77093540  0.77321268     0.31900
H779        H  0.27672899  0.85810556  0.77009340     0.30800
H780        H  0.32204247  0.92431949  0.77614518     0.32500
H781        H  0.28984128  0.98445005  0.78786815     0.31500
H782        H  0.08933565  0.76678938  0.77484697     0.35500
H783        H  0.12458979  0.85002213  0.76987770     0.28200
H784        H  0.25334067  0.80086392  0.80741576     0.32400
H785        H  0.28321366  0.97221364  0.80436112     0.35300
H786        H  0.27431484  0.82571070  0.77457263     0.27900
H787        H  0.08880862  0.83122745  0.77431795     0.40700
H788        H  0.05495861  0.76448900  0.80284129     0.30800
H789        H  0.07697229  0.71336519  0.78983201     0.38400
H790        H  0.30896681  0.96501740  0.79182412     0.30300
H791        H  0.12665095  0.86922687  0.80821840     0.30300
H792        H  0.27113333  0.84681167  0.80720379     0.30600
Zr793      Zr  0.51075310  0.44680645  0.55237543     2.17500
O794        O  0.54951867  0.46368597  0.56182802    -0.51800
O795        O  0.50240183  0.38173731  0.55097259    -0.75000
O796        O  0.46961441  0.41485096  0.56131765    -0.81700
O797        O  0.59978961  0.49613419  0.54199349    -0.83500
O798        O  0.41464097  0.42037306  0.56085872    -0.79100
O799        O  0.57935836  0.46390937  0.55114942    -0.90700
O800        O  0.46079545  0.35405945  0.54288300    -0.76700
O801        O  0.44310814  0.41287539  0.54943842    -0.86200
O802        O  0.51012684  0.43461907  0.54161001    -0.85900
O803        O  0.48553056  0.48978908  0.55486983    -0.72600
O804        O  0.54761119  0.50989496  0.54758832    -0.84800
Zr805      Zr  0.45426252  0.50712562  0.53587037     2.26400
Zr806      Zr  0.41834087  0.45641947  0.55147888     2.06300
Zr807      Zr  0.54563546  0.49751875  0.53680718     2.10000
Zr808      Zr  0.44241788  0.40031960  0.53877381     1.78800
O809        O  0.59998015  0.56252072  0.53423925    -0.93600
O810        O  0.38104049  0.34338101  0.54212893    -0.41400
O811        O  0.47812352  0.46278518  0.53380379    -0.78000
O812        O  0.41598349  0.44310015  0.54063990    -0.96700
O813        O  0.45482494  0.51934714  0.54664017    -0.90000
O814        O  0.52174604  0.54176918  0.53890539    -0.92900
C815        C  0.48276493  0.35328536  0.54720702     1.00900
C816        C  0.60579142  0.48260209  0.54702017     1.13800
C817        C  0.43650381  0.40874460  0.56347262     1.04600
O818        O  0.35161558  0.40107486  0.55243652    -0.95000
O819        O  0.36986931  0.47207977  0.54741179    -0.90800
O820        O  0.38763848  0.49425806  0.53762300    -0.83900
C821        C  0.36398707  0.48407968  0.54221592     1.11200
O822        O  0.56648574  0.57175507  0.55857037    -0.97000
Zr823      Zr  0.52181702  0.55213455  0.54978281     1.88900
O824        O  0.47341616  0.57673373  0.53681456    -0.73600
O825        O  0.41037059  0.49359937  0.55978556    -0.52900
O826        O  0.49593075  0.57487288  0.55804003    -0.97600
O827        O  0.58785103  0.60682771  0.54783454    -0.54800
O828        O  0.51140934  0.60225967  0.54534706    -0.74200
C829        C  0.49306751  0.60481060  0.54065821     0.98200
O830        O  0.42266555  0.51244108  0.52650594    -0.63000
O831        O  0.57258183  0.46738263  0.52998673    -0.57800
O832        O  0.47801625  0.50764307  0.52535712    -0.94500
O833        O  0.53197559  0.50066684  0.52602874    -0.92900
O834        O  0.46192588  0.37780744  0.52970055    -0.93200
O835        O  0.39260972  0.37562650  0.53070285    -0.92000
C836        C  0.50568792  0.50348469  0.52292663     1.17000
H837        H  0.52310211  0.41987155  0.54065208     0.33000
H838        H  0.38912976  0.43012774  0.53918680     0.43800
H839        H  0.53638941  0.56611566  0.53665642     0.37400
H840        H  0.48663855  0.49370605  0.55927457     0.33800
H841        H  0.37901704  0.32111271  0.53968579     0.25600
H842        H  0.41414023  0.51795190  0.55779259     0.31600
H843        H  0.49190356  0.55731500  0.56157857     0.37500
H844        H  0.49100275  0.39159617  0.52991398     0.31900
H845        H  0.60097802  0.48682574  0.52964412     0.30800
H846        H  0.61562112  0.55756067  0.53116124     0.32500
H847        H  0.58561261  0.61977363  0.54406348     0.31500
H848        H  0.39679744  0.39949155  0.52849031     0.35500
H849        H  0.39862793  0.48646026  0.52598335     0.28200
H850        H  0.54444808  0.43827128  0.56358231     0.32400
H851        H  0.57120064  0.59806883  0.55980394     0.35300
H852        H  0.57146550  0.44526483  0.53234933     0.27900
H853        H  0.41312212  0.53091094  0.52747804     0.40700
H854        H  0.34620384  0.38720123  0.54843241     0.30800
H855        H  0.38615104  0.33804670  0.54639053     0.38400
H856        H  0.60314406  0.59424447  0.54652901     0.30300
H857        H  0.38196629  0.47863987  0.56078456     0.30300
H858        H  0.53674055  0.47341692  0.56471595     0.30600
Zr859      Zr  0.55283947  0.48020404  0.46352674     2.17500
O860        O  0.59908329  0.48678201  0.47162223    -0.51800
O861        O  0.53502087  0.41101225  0.46229557    -0.75000
O862        O  0.52488385  0.46640468  0.47395721    -0.81700
O863        O  0.63725298  0.52152599  0.45174514    -0.83500
O864        O  0.47108995  0.47358195  0.47400135    -0.79100
O865        O  0.61896039  0.49468876  0.46129047    -0.90700
O866        O  0.49309605  0.38549955  0.45418693    -0.76700
O867        O  0.48491150  0.44544384  0.46088539    -0.86200
O868        O  0.55023612  0.46925655  0.45268115    -0.85900
O869        O  0.53000780  0.52467393  0.46638144    -0.72600
O870        O  0.58886408  0.54435880  0.45882046    -0.84800
Zr871      Zr  0.49271023  0.54108225  0.44802924     2.26400
Zr872      Zr  0.46165466  0.48937746  0.46357895     2.06300
Zr873      Zr  0.58521356  0.53266677  0.44794427     2.10000
Zr874      Zr  0.48249047  0.43594754  0.44999231     1.78800
O875        O  0.64929025  0.59157917  0.44674257    -0.93600
O876        O  0.41831115  0.37928292  0.45232764    -0.41400
O877        O  0.51739118  0.49865324  0.44499187    -0.78000
O878        O  0.45650087  0.47732189  0.45271689    -0.96700
O879        O  0.49591414  0.55243027  0.45881768    -0.90000
O880        O  0.56078896  0.57554791  0.45067627    -0.92900
C881        C  0.51327925  0.38280305  0.45858411     1.00900
C882        C  0.64324606  0.50802014  0.45677896     1.13800
C883        C  0.49650674  0.46753379  0.47674849     1.04600
O884        O  0.40522419  0.42378438  0.46496441    -0.95000
O885        O  0.40978853  0.50036322  0.45974681    -0.90800
O886        O  0.42754291  0.53052329  0.45041662    -0.83900
C887        C  0.40327068  0.51531024  0.45492565     1.11200
O888        O  0.61732709  0.61038884  0.46882482    -0.97000
Zr889      Zr  0.56350438  0.58707674  0.46141539     1.88900
O890        O  0.50113774  0.60592312  0.44972241    -0.73600
O891        O  0.43827612  0.51959991  0.47102251    -0.52900
O892        O  0.54379384  0.60422079  0.47105852    -0.97600
O893        O  0.62164402  0.64789970  0.45818143    -0.54800
O894        O  0.53734816  0.62948710  0.45847463    -0.74200
C895        C  0.51639669  0.63132565  0.45407426     0.98200
O896        O  0.45211856  0.52105346  0.43875526    -0.63000
O897        O  0.59466146  0.49661670  0.43960755    -0.57800
O898        O  0.53083256  0.57455126  0.43893581    -0.94500
O899        O  0.58353278  0.56507026  0.43844330    -0.92900
O900        O  0.50590733  0.41273084  0.44146915    -0.93200
O901        O  0.43666537  0.41763169  0.44139624    -0.92000
C902        C  0.56215067  0.57879289  0.43633754     1.17000
H903        H  0.56221539  0.45373125  0.45159820     0.33000
H904        H  0.42932367  0.46435991  0.45142918     0.43800
H905        H  0.57484704  0.60041421  0.44854704     0.37400
H906        H  0.53400239  0.53107101  0.47071053     0.33800
H907        H  0.42008926  0.37279005  0.45668433     0.25600
H908        H  0.41902468  0.49768275  0.47362603     0.31600
H909        H  0.55389890  0.63288893  0.47077789     0.37500
H910        H  0.48524297  0.38489584  0.44089534     0.31900
H911        H  0.57143655  0.48808638  0.43690715     0.30800
H912        H  0.66122343  0.58604200  0.44313567     0.32500
H913        H  0.61223583  0.65971188  0.45506089     0.31500
H914        H  0.45126380  0.43766700  0.43819007     0.35500
H915        H  0.46604737  0.51302532  0.43580029     0.28200
H916        H  0.58654591  0.46162562  0.47392614     0.32400
H917        H  0.62075527  0.63544852  0.47047295     0.35300
H918        H  0.61693416  0.51696789  0.43718594     0.27900
H919        H  0.42838041  0.49598232  0.43988869     0.40700
H920        H  0.38258441  0.42541050  0.46330419     0.30800
H921        H  0.39993502  0.38966562  0.45240979     0.38400
H922        H  0.63754315  0.63924114  0.45581595     0.30300
H923        H  0.46098624  0.53540240  0.47376716     0.30300
H924        H  0.60002794  0.50666459  0.47453871     0.30600
Zr925      Zr  0.54612066  0.05376372  0.55274381     2.17500
O926        O  0.52784427  0.07937949  0.56161012    -0.51800
O927        O  0.61205051  0.10934723  0.55154626    -0.75000
O928        O  0.57756179  0.04635129  0.56192516    -0.81700
O929        O  0.50660627  0.09598568  0.54108220    -0.83500
O930        O  0.57218371  0.98609736  0.56186354    -0.79100
O931        O  0.53450662  0.10784828  0.55057117    -0.90700
O932        O  0.64251924  0.09501535  0.54390668    -0.76700
O933        O  0.58053114  0.01972579  0.55049012    -0.86200
O934        O  0.56091156  0.06366045  0.54203485    -0.85900
O935        O  0.50157899  0.98614776  0.55539434    -0.72600
O936        O  0.48430519  0.02764332  0.54747104    -0.84800
Zr937      Zr  0.49016715  0.93529205  0.53671086     2.26400
Zr938      Zr  0.53592019  0.95200464  0.55269636     2.06300
Zr939      Zr  0.49957272  0.03593505  0.53673386     2.10000
Zr940      Zr  0.59613996  0.03027461  0.53988540     1.78800
O941        O  0.43464307  0.02574257  0.53422048    -0.93600
O942        O  0.65222367  0.02548004  0.54360558    -0.41400
O943        O  0.53506008  0.00292466  0.53453477    -0.78000
O944        O  0.55271243  0.96145116  0.54196383    -0.96700
O945        O  0.47452983  0.92517063  0.54739715    -0.90000
O946        O  0.45447310  0.96831373  0.53892502    -0.92900
C947        C  0.64139024  0.11809578  0.54798939     1.00900
C948        C  0.51962209  0.11673964  0.54599497     1.13800
C949        C  0.58435540  0.02021488  0.56425245     1.04600
O950        O  0.59137731  0.94135293  0.55414563    -0.95000
O951        O  0.52135328  0.88721234  0.54924358    -0.90800
O952        O  0.50401546  0.88336072  0.53920381    -0.83900
C953        C  0.51191378  0.86960349  0.54401155     1.11200
O954        O  0.42080653  0.98666833  0.55824668    -0.97000
Zr955      Zr  0.44090339  0.95984315  0.54975228     1.88900
O956        O  0.42052657  0.88440877  0.53718337    -0.73600
O957        O  0.49786602  0.90960871  0.56121645    -0.52900
O958        O  0.41174781  0.91182997  0.55804811    -0.97600
O959        O  0.38712663  0.97030721  0.54660618    -0.54800
O960        O  0.39333870  0.89769161  0.54539709    -0.74200
C961        C  0.39171806  0.87611172  0.54085903     0.98200
O962        O  0.48438883  0.89605648  0.52762311    -0.63000
O963        O  0.52740525  0.08812814  0.52904515    -0.57800
O964        O  0.49691325  0.95815789  0.52602165    -0.94500
O965        O  0.50047731  0.01769518  0.52607570    -0.92900
O966        O  0.62105996  0.07493933  0.53113333    -0.93200
O967        O  0.61823605  0.00353036  0.53168185    -0.92000
C968        C  0.50081629  0.98902223  0.52328677     1.17000
H969        H  0.57606102  0.09120994  0.54098810     0.33000
H970        H  0.56619316  0.94747479  0.54081496     0.43800
H971        H  0.43096532  0.95819475  0.53644166     0.37400
H972        H  0.49626257  0.98387195  0.55976882     0.33800
H973        H  0.67519606  0.04681514  0.54143701     0.25600
H974        H  0.47203498  0.89091957  0.55938418     0.31600
H975        H  0.38300162  0.90095889  0.55763857     0.37500
H976        H  0.59969384  0.08048701  0.53012676     0.31900
H977        H  0.50670881  0.09498158  0.52825651     0.30800
H978        H  0.43331290  0.04738518  0.53634474     0.32500
H979        H  0.37814164  0.95705066  0.54256493     0.31500
H980        H  0.59726280  0.99441838  0.52851985     0.35500
H981        H  0.50870650  0.89431991  0.52750534     0.28200
H982        H  0.55277138  0.10237712  0.56300852     0.32400
H983        H  0.39213408  0.96883841  0.55874031     0.35300
H984        H  0.54878762  0.11134661  0.53115729     0.27900
H985        H  0.46309537  0.86903258  0.52857311     0.40700
H986        H  0.60951431  0.95590270  0.55071702     0.30800
H987        H  0.65567193  0.03432927  0.54795286     0.38400
H988        H  0.39986409  0.99873420  0.54565419     0.30300
H989        H  0.51024557  0.89345393  0.56208174     0.30300
H990        H  0.52078472  0.05952230  0.56490717     0.30600
Zr991      Zr  0.51294104  0.05089871  0.46391934     2.17500
O992        O  0.50344775  0.08872681  0.47198114    -0.51800
O993        O  0.58153969  0.10208528  0.46265572    -0.75000
O994        O  0.53028837  0.03902818  0.47427470    -0.81700
O995        O  0.47502902  0.09463302  0.45158293    -0.83500
O996        O  0.52419790  0.97842073  0.47449469    -0.79100
O997        O  0.50122932  0.10436758  0.46122264    -0.90700
O998        O  0.60444577  0.08609356  0.45416493    -0.76700
O999        O  0.54665360  0.01624204  0.46144041    -0.86200
O1000       O  0.52349926  0.05728141  0.45305176    -0.85900
O1001       O  0.46833325  0.98426397  0.46703405    -0.72600
O1002       O  0.44896313  0.02342833  0.45921514    -0.84800
Zr1003     Zr  0.45017196  0.92730041  0.44887484     2.26400
Zr1004     Zr  0.50225167  0.94958948  0.46438615     2.06300
Zr1005     Zr  0.46030654  0.02912972  0.44830411     2.10000
Zr1006     Zr  0.55597622  0.02187753  0.45054320     1.78800
O1007       O  0.40184915  0.03501729  0.44697155    -0.93600
O1008       O  0.61371656  0.01662156  0.45304722    -0.41400
O1009       O  0.49316461  0.99372425  0.44560070    -0.78000
O1010       O  0.51420086  0.95507312  0.45350802    -0.96700
O1011       O  0.43881621  0.92086894  0.45968993    -0.90000
O1012       O  0.41687846  0.96242035  0.45126512    -0.92900
C1013       C  0.60793949  0.10943645  0.45855317     1.00900
C1014       C  0.48875701  0.11503316  0.45653820     1.13800
C1015       C  0.53120975  0.01060133  0.47710119     1.04600
O1016       O  0.56361836  0.95016571  0.46640432    -0.95000
O1017       O  0.49387687  0.88775314  0.46064932    -0.90800
O1018       O  0.45941395  0.87228615  0.45165149    -0.83900
C1019       C  0.47752989  0.86536731  0.45597713     1.11200
O1020       O  0.38404500  0.98411967  0.47011131    -0.97000
Zr1021     Zr  0.40576994  0.95609578  0.46203490     1.88900
O1022       O  0.38359951  0.87426404  0.45048472    -0.73600
O1023       O  0.46596362  0.89828917  0.47199433    -0.52900
O1024       O  0.38364098  0.91497842  0.47123477    -0.97600
O1025       O  0.35148104  0.96521015  0.45872618    -0.54800
O1026       O  0.35754355  0.89073816  0.45849753    -0.74200
C1027       C  0.35582662  0.86682985  0.45431376     0.98200
O1028       O  0.46698495  0.90063576  0.43995187    -0.63000
O1029       O  0.49508884  0.07150638  0.43959236    -0.57800
O1030       O  0.42035976  0.93245809  0.43933247    -0.94500
O1031       O  0.42845595  0.99397675  0.43885437    -0.92900
O1032       O  0.57501653  0.06179126  0.44123017    -0.93200
O1033       O  0.57571184  0.99292382  0.44234120    -0.92000
C1034       C  0.41634181  0.95942009  0.43662635     1.17000
H1035       H  0.53910389  0.08455795  0.45185168     0.33000
H1036       H  0.52704613  0.94062662  0.45227681     0.43800
H1037       H  0.39214102  0.95162078  0.44909135     0.37400
H1038       H  0.46301168  0.98269564  0.47140088     0.33800
H1039       H  0.63529205  0.03763629  0.45060009     0.25600
H1040       H  0.48638115  0.89553892  0.47425782     0.31600
H1041       H  0.38647867  0.89191853  0.47021763     0.37500
H1042       H  0.60404917  0.07444150  0.44109827     0.31900
H1043       H  0.47963893  0.08434644  0.43852204     0.30800
H1044       H  0.40330911  0.04405775  0.44266756     0.32500
H1045       H  0.33850862  0.94629890  0.45531503     0.31500
H1046       H  0.55085398  0.97452027  0.44022269     0.35500
H1047       H  0.47781317  0.92212977  0.43687050     0.28200
H1048       H  0.52928870  0.10425465  0.47403478     0.32400
H1049       H  0.35620673  0.96425316  0.47092016     0.35300
H1050       H  0.51990974  0.09291630  0.44133546     0.27900
H1051       H  0.49014445  0.89864528  0.44123348     0.40700
H1052       H  0.58392316  0.97836306  0.46659965     0.30800
H1053       H  0.62010666  0.02579416  0.45736688     0.38400
H1054       H  0.36430368  0.99136638  0.45672382     0.30300
H1055       H  0.45612008  0.91027564  0.47501107     0.30300
H1056       H  0.48610201  0.06933174  0.47509338     0.30600
Zr1057     Zr  0.93908173  0.48429790  0.55210137     2.17500
O1058       O  0.91594492  0.44292569  0.56125599    -0.51800
O1059       O  0.88521280  0.49706665  0.55077356    -0.75000
O1060       O  0.94607788  0.52489685  0.56102497    -0.81700
O1061       O  0.89732580  0.39815981  0.54125021    -0.83500
O1062       O  0.00805096  0.57775275  0.56108902    -0.79100
O1063       O  0.88469224  0.41778465  0.55039376    -0.90700
O1064       O  0.90187587  0.54016567  0.54282102    -0.76700
O1065       O  0.97491959  0.55228746  0.54946310    -0.86200
O1066       O  0.93003607  0.48734659  0.54129952    -0.85900
O1067       O  0.00613672  0.50669210  0.55493024    -0.72600
O1068       O  0.96445828  0.44643846  0.54733598    -0.84800
Zr1069     Zr  0.05921705  0.54059246  0.53627477     2.26400
Zr1070     Zr  0.04207603  0.57443558  0.55192250     2.06300
Zr1071     Zr  0.95649960  0.45096371  0.53652122     2.10000
Zr1072     Zr  0.96575873  0.55549085  0.53875539     1.78800
O1073       O  0.96715549  0.39713683  0.53354778    -0.93600
O1074       O  0.97531164  0.61917760  0.54197099    -0.41400
O1075       O  0.99187312  0.51901378  0.53391251    -0.78000
O1076       O  0.03412317  0.57947701  0.54104235    -0.96700
O1077       O  0.06831239  0.53767816  0.54707624    -0.90000
O1078       O  0.02386118  0.47257449  0.53894199    -0.92900
C1079       C  0.87807257  0.51804309  0.54703109     1.00900
C1080       C  0.87639227  0.39207145  0.54612221     1.13800
C1081       C  0.97333850  0.55720202  0.56336079     1.04600
O1082       O  0.05497010  0.64151552  0.55324651    -0.95000
O1083       O  0.10708356  0.62320346  0.54834786    -0.90800
O1084       O  0.11395964  0.60554424  0.53870340    -0.83900
C1085       C  0.12663050  0.62895724  0.54334089     1.11200
O1086       O  0.00688464  0.42690099  0.55880311    -0.97000
Zr1087     Zr  0.03189550  0.47009282  0.54984225     1.88900
O1088       O  0.10683854  0.51750474  0.53716233    -0.73600
O1089       O  0.08315070  0.57876365  0.56064433    -0.52900
O1090       O  0.07847159  0.49577086  0.55837294    -0.97600
O1091       O  0.01858342  0.40374175  0.54743416    -0.54800
O1092       O  0.09246631  0.47884852  0.54563630    -0.74200
C1093       C  0.11395317  0.49662629  0.54096636     0.98200
O1094       O  0.10046804  0.57406873  0.52735578    -0.63000
O1095       O  0.90102882  0.42464603  0.52937677    -0.57800
O1096       O  0.03653083  0.52129172  0.52558044    -0.94500
O1097       O  0.97447861  0.46897199  0.52585940    -0.92900
O1098       O  0.92157159  0.53680430  0.52993183    -0.93200
O1099       O  0.99275057  0.60275487  0.53031927    -0.92000
C1100       C  0.00441964  0.49553385  0.52294079     1.17000
H1101       H  0.90258200  0.47557302  0.54021047     0.33000
H1102       H  0.04901974  0.60659898  0.53973343     0.43800
H1103       H  0.03346480  0.45798047  0.53665194     0.37400
H1104       H  0.00797054  0.50457264  0.55933906     0.33800
H1105       H  0.95310068  0.62062854  0.54007891     0.25600
H1106       H  0.10924248  0.58670777  0.55884134     0.31600
H1107       H  0.09323348  0.48142898  0.55816975     0.37500
H1108       H  0.91222344  0.55604180  0.52989461     0.31900
H1109       H  0.89360990  0.39680125  0.52872876     0.30800
H1110       H  0.94097253  0.37320747  0.53391342     0.32500
H1111       H  0.04033836  0.40171600  0.54937429     0.31500
H1112       H  0.99711348  0.58844564  0.52692989     0.35500
H1113       H  0.10051240  0.59925720  0.52698424     0.28200
H1114       H  0.89585825  0.44807199  0.56309375     0.32400
H1115       H  0.02575178  0.41758880  0.55958244     0.35300
H1116       H  0.87874786  0.42358791  0.53168329     0.27900
H1117       H  0.12766918  0.58154285  0.52856328     0.40700
H1118       H  0.02866141  0.63915828  0.55339068     0.30800
H1119       H  0.96938064  0.61634586  0.54643843     0.38400
H1120       H  0.02343356  0.40385487  0.54295517     0.30300
H1121       H  0.08711929  0.60218839  0.56297186     0.30300
H1122       H  0.93832165  0.45471855  0.56417607     0.30600
Zr1123     Zr  0.94101572  0.44056620  0.46365157     2.17500
O1124       O  0.90211094  0.39321600  0.47165327    -0.51800
O1125       O  0.89251997  0.46231482  0.46263044    -0.75000
O1126       O  0.95353596  0.46930863  0.47395438    -0.81700
O1127       O  0.89623376  0.35548826  0.45205165    -0.83500
O1128       O  0.01354911  0.52452742  0.47394553    -0.79100
O1129       O  0.88606862  0.37670043  0.46125512    -0.90700
O1130       O  0.90552466  0.49695826  0.45371344    -0.76700
O1131       O  0.97409205  0.50788819  0.46070043    -0.86200
O1132       O  0.93288920  0.44102736  0.45277782    -0.85900
O1133       O  0.00798751  0.46347779  0.46667177    -0.72600
O1134       O  0.96916190  0.40342029  0.45931927    -0.84800
Zr1135     Zr  0.06279017  0.49958822  0.44835853     2.26400
Zr1136     Zr  0.04080757  0.53126699  0.46369466     2.06300
Zr1137     Zr  0.96157587  0.40533200  0.44840770     2.10000
Zr1138     Zr  0.96716493  0.50797670  0.44975370     1.78800
O1139       O  0.95751412  0.34138261  0.44799833    -0.93600
O1140       O  0.97497643  0.57315134  0.45108657    -0.41400
O1141       O  0.99570767  0.47287277  0.44515414    -0.78000
O1142       O  0.03405210  0.53526959  0.45277858    -0.96700
O1143       O  0.07049174  0.49703236  0.45918057    -0.90000
O1144       O  0.02923873  0.43154245  0.45114843    -0.92900
C1145       C  0.88447498  0.48066548  0.45847774     1.00900
C1146       C  0.87516187  0.35183264  0.45683080     1.13800
C1147       C  0.98204988  0.49894999  0.47667318     1.04600
O1148       O  0.03794974  0.59095038  0.46559263    -0.95000
O1149       O  0.10191113  0.58479895  0.45991039    -0.90800
O1150       O  0.11616392  0.56618401  0.45078231    -0.83900
C1151       C  0.12372362  0.59122047  0.45515946     1.11200
O1152       O  0.00827314  0.38024593  0.47005391    -0.97000
Zr1153     Zr  0.03734340  0.42945308  0.46191143     1.88900
O1154       O  0.11835689  0.49048369  0.45010988    -0.73600
O1155       O  0.09452264  0.54763140  0.47087866    -0.52900
O1156       O  0.07725492  0.44962512  0.47126205    -0.97600
O1157       O  0.03401312  0.36766350  0.45909837    -0.54800
O1158       O  0.10380517  0.44981319  0.45833758    -0.74200
C1159       C  0.12717510  0.47198231  0.45408353     0.98200
O1160       O  0.08888879  0.54250493  0.43937142    -0.63000
O1161       O  0.91884458  0.39279730  0.43953108    -0.57800
O1162       O  0.05632650  0.46091274  0.43919517    -0.94500
O1163       O  0.99587050  0.40577220  0.43904971    -0.92900
O1164       O  0.92165041  0.47910184  0.44115777    -0.93200
O1165       O  0.99353533  0.55059053  0.44077800    -0.92000
C1166       C  0.03002165  0.42852054  0.43672727     1.17000
H1167       H  0.90543589  0.42902846  0.45166814     0.33000
H1168       H  0.04779393  0.56232745  0.45142137     0.43800
H1169       H  0.04040118  0.41761758  0.44907229     0.37400
H1170       H  0.01014061  0.46038259  0.47104337     0.33800
H1171       H  0.95060280  0.57104686  0.44937297     0.25600
H1172       H  0.09520319  0.56834485  0.47356829     0.31600
H1173       H  0.10493142  0.46198025  0.46987174     0.37500
H1174       H  0.90864478  0.49509274  0.44079993     0.31900
H1175       H  0.90779505  0.36446292  0.43862934     0.30800
H1176       H  0.94480551  0.33003743  0.44399081     0.32500
H1177       H  0.04958843  0.37312525  0.45526741     0.31500
H1178       H  0.00930395  0.54098889  0.43860468     0.35500
H1179       H  0.07248260  0.52733902  0.43582055     0.28200
H1180       H  0.88827369  0.40474478  0.47389358     0.32400
H1181       H  0.02867707  0.37362885  0.47122640     0.35300
H1182       H  0.89629868  0.39481613  0.44113057     0.27900
H1183       H  0.08138415  0.56282845  0.44005149     0.40700
H1184       H  0.03717046  0.60093931  0.46143370     0.30800
H1185       H  0.97284217  0.57577600  0.45558859     0.38400
H1186       H  0.00642463  0.35022732  0.45779752     0.30300
H1187       H  0.08496030  0.52426884  0.47357606     0.30300
H1188       H  0.92136807  0.39347748  0.47463195     0.30600
Zr1189     Zr  0.14628074  0.25729552  0.28147550     2.17500
O1190       O  0.10581674  0.23030169  0.27227471    -0.51800
O1191       O  0.15835123  0.20344593  0.28336941    -0.75000
O1192       O  0.18612502  0.26267343  0.27257312    -0.81700
O1193       O  0.05603987  0.21862002  0.29154419    -0.83500
O1194       O  0.24197474  0.32226866  0.27294465    -0.79100
O1195       O  0.07884781  0.20451701  0.28283050    -0.90700
O1196       O  0.19913149  0.21868299  0.29159799    -0.76700
O1197       O  0.21328080  0.29066369  0.28469053    -0.86200
O1198       O  0.14468640  0.24837615  0.29234942    -0.85900
O1199       O  0.17223306  0.32451445  0.27832633    -0.72600
O1200       O  0.10892464  0.28519860  0.28554604    -0.84800
Zr1201     Zr  0.20102183  0.37808454  0.29699024     2.26400
Zr1202     Zr  0.23878891  0.35808538  0.28191958     2.06300
Zr1203     Zr  0.10847351  0.27733851  0.29644739     2.10000
Zr1204     Zr  0.21180642  0.28205454  0.29551256     1.78800
O1205       O  0.05322120  0.28869170  0.29765243    -0.93600
O1206       O  0.27767894  0.29325805  0.29348336    -0.41400
O1207       O  0.17558073  0.31057220  0.29967422    -0.78000
O1208       O  0.23934442  0.35035401  0.29289888    -0.96700
O1209       O  0.20270411  0.38698544  0.28609980    -0.90000
O1210       O  0.13393110  0.34502028  0.29374127    -0.92900
C1211       C  0.17827431  0.19560041  0.28722531     1.00900
C1212       C  0.05169773  0.19726730  0.28678572     1.13800
C1213       C  0.21984905  0.28844888  0.27045505     1.04600
O1214       O  0.30460319  0.36801404  0.28042084    -0.95000
O1215       O  0.28971444  0.42063377  0.28607186    -0.90800
O1216       O  0.26916162  0.42900120  0.29543670    -0.83900
C1217       C  0.29483611  0.43985459  0.29111443     1.11200
O1218       O  0.09456724  0.32399272  0.27371423    -0.97000
Zr1219     Zr  0.13607280  0.35273783  0.28277731     1.88900
O1220       O  0.17843909  0.42591557  0.29592783    -0.73600
O1221       O  0.24725004  0.40176498  0.27334949    -0.52900
O1222       O  0.16351925  0.39974096  0.27431809    -0.97600
O1223       O  0.07016409  0.34330537  0.28406518    -0.54800
O1224       O  0.14704453  0.41463102  0.28675483    -0.74200
C1225       C  0.16129648  0.43474014  0.29167934     0.98200
O1226       O  0.23371761  0.42719979  0.30507552    -0.63000
O1227       O  0.08044379  0.22357303  0.30389248    -0.57800
O1228       O  0.17919122  0.35195537  0.30745248    -0.94500
O1229       O  0.11858253  0.29741840  0.30720816    -0.92900
O1230       O  0.18840128  0.23759804  0.30431335    -0.93200
O1231       O  0.25210102  0.30643196  0.30476747    -0.92000
C1232       C  0.14859155  0.32404900  0.31011926     1.17000
H1233       H  0.13183118  0.22084272  0.29344195     0.33000
H1234       H  0.26592337  0.36387003  0.29447004     0.43800
H1235       H  0.11908131  0.35542874  0.29574404     0.37400
H1236       H  0.17162862  0.32609806  0.27388662     0.33800
H1237       H  0.28070237  0.27516487  0.29631935     0.25600
H1238       H  0.24792204  0.42495840  0.27527980     0.31600
H1239       H  0.14773363  0.41306390  0.27421897     0.37500
H1240       H  0.16387672  0.23697634  0.30559181     0.31900
H1241       H  0.05203637  0.21488265  0.30403652     0.30800
H1242       H  0.03715854  0.27061374  0.30099544     0.32500
H1243       H  0.06987422  0.36408135  0.28151414     0.31500
H1244       H  0.23827758  0.31629587  0.30740249     0.35500
H1245       H  0.21246251  0.42774801  0.30745101     0.28200
H1246       H  0.11148691  0.20987512  0.27074046     0.32400
H1247       H  0.09134370  0.34517811  0.27182590     0.35300
H1248       H  0.08179317  0.20157898  0.30189882     0.27900
H1249       H  0.24529614  0.41602583  0.30793394     0.40700
H1250       H  0.30453725  0.34612357  0.28269787     0.30800
H1251       H  0.27596300  0.28193283  0.28933950     0.38400
H1252       H  0.06921533  0.35126964  0.28836209     0.30300
H1253       H  0.27456940  0.41151182  0.27193142     0.30300
H1254       H  0.11736720  0.25157402  0.26916080     0.30600
Zr1255     Zr  0.11521304  0.26008819  0.36997959     2.17500
O1256       O  0.06730307  0.21778341  0.36227239    -0.51800
O1257       O  0.13443168  0.20918173  0.37080251    -0.75000
O1258       O  0.13865384  0.27572402  0.35925047    -0.81700
O1259       O  0.03516975  0.21501258  0.38248576    -0.83500
O1260       O  0.19154624  0.33748155  0.35899001    -0.79100
O1261       O  0.04912130  0.20915774  0.37249561    -0.90700
O1262       O  0.17359940  0.22318110  0.37921400    -0.76700
O1263       O  0.18397768  0.29504650  0.37203568    -0.86200
O1264       O  0.12147545  0.25173977  0.38074358    -0.85900
O1265       O  0.13487025  0.32711154  0.36738306    -0.72600
O1266       O  0.07958585  0.28653247  0.37536544    -0.84800
Zr1267     Zr  0.17911344  0.38094741  0.38551872     2.26400
Zr1268     Zr  0.20433043  0.36206608  0.36948523     2.06300
Zr1269     Zr  0.08745846  0.27891700  0.38614857     2.10000
Zr1270     Zr  0.18997407  0.28729970  0.38285383     1.78800
O1271       O  0.02152553  0.26692493  0.38837711    -0.93600
O1272       O  0.25215276  0.29362323  0.37950567    -0.41400
O1273       O  0.15640219  0.31409808  0.38850495    -0.78000
O1274       O  0.21375070  0.35416666  0.38017726    -0.96700
O1275       O  0.17072132  0.38946287  0.37489180    -0.90000
O1276       O  0.11001446  0.34617758  0.38359153    -0.92900
C1277       C  0.15375619  0.20080129  0.37474345     1.00900
C1278       C  0.02688988  0.19704822  0.37726222     1.13800
C1279       C  0.16554424  0.30581082  0.35634427     1.04600
O1280       O  0.26188080  0.35802706  0.36643708    -0.95000
O1281       O  0.25950856  0.42294702  0.37337488    -0.90800
O1282       O  0.24478600  0.43441094  0.38298516    -0.83900
C1283       C  0.26820311  0.44345309  0.37835728     1.11200
O1284       O  0.04429406  0.32505427  0.36630001    -0.97000
Zr1285     Zr  0.10183693  0.35427338  0.37302230     1.88900
O1286       O  0.16868956  0.43610466  0.38412985    -0.73600
O1287       O  0.22000935  0.41713177  0.36261856    -0.52900
O1288       O  0.11406041  0.38981282  0.36330996    -0.97600
O1289       O  0.04289735  0.35011016  0.37754885    -0.54800
O1290       O  0.12543636  0.42186983  0.37626172    -0.74200
C1291       C  0.14952107  0.44527379  0.38033982     0.98200
O1292       O  0.22447203  0.40663879  0.39420940    -0.63000
O1293       O  0.08492960  0.23599664  0.39446416    -0.57800
O1294       O  0.14513580  0.37554434  0.39510934    -0.94500
O1295       O  0.08976261  0.31540145  0.39544148    -0.92900
O1296       O  0.17204458  0.24736183  0.39216447    -0.93200
O1297       O  0.24228470  0.31642106  0.39051821    -0.92000
C1298       C  0.11294394  0.34987476  0.39766396     1.17000
H1299       H  0.11005933  0.22429530  0.38182271     0.33000
H1300       H  0.24134006  0.36814493  0.38122726     0.43800
H1301       H  0.09674427  0.35694089  0.38595289     0.37400
H1302       H  0.12901106  0.32953848  0.36314218     0.33800
H1303       H  0.25426539  0.27291048  0.38179313     0.25600
H1304       H  0.23885188  0.41700462  0.35959566     0.31600
H1305       H  0.13569508  0.41677380  0.36420194     0.37500
H1306       H  0.18941886  0.23579079  0.39219198     0.31900
H1307       H  0.10468884  0.25383614  0.39749328     0.30800
H1308       H  0.01437862  0.25271304  0.39236232     0.32500
H1309       H  0.05240949  0.37224216  0.38050285     0.31500
H1310       H  0.23921195  0.33762412  0.39243753     0.35500
H1311       H  0.21970982  0.42671113  0.39615695     0.28200
H1312       H  0.08034266  0.20631000  0.35980692     0.32400
H1313       H  0.03876645  0.34648086  0.36531861     0.35300
H1314       H  0.05929051  0.22728019  0.39649911     0.27900
H1315       H  0.21479295  0.38485317  0.39723177     0.40700
H1316       H  0.27673149  0.36201511  0.37031479     0.30800
H1317       H  0.24763576  0.28444182  0.37517377     0.38400
H1318       H  0.03149651  0.32621209  0.38015654     0.30300
H1319       H  0.19563743  0.40895677  0.36022663     0.30300
H1320       H  0.06383952  0.23555810  0.35942483     0.30600
Zr1321     Zr  0.11542650  0.83433071  0.28044812     2.17500
O1322       O  0.13713195  0.87913305  0.27166009    -0.51800
O1323       O  0.04813657  0.82154103  0.28113513    -0.75000
O1324       O  0.08918445  0.79882452  0.27080217    -0.81700
O1325       O  0.14939591  0.91346317  0.29262124    -0.83500
O1326       O  0.09676534  0.74501100  0.27078322    -0.79100
O1327       O  0.12776314  0.90017258  0.28269965    -0.90700
O1328       O  0.01738398  0.77609937  0.28866942    -0.76700
O1329       O  0.08216256  0.76556460  0.28246611    -0.86200
O1330       O  0.09750078  0.82724647  0.29107563    -0.85900
O1331       O  0.16195970  0.81336539  0.27805224    -0.72600
O1332       O  0.17541238  0.86991793  0.28618989    -0.84800
Zr1333     Zr  0.17088635  0.77189411  0.29665984     2.26400
Zr1334     Zr  0.12862130  0.74446812  0.28041027     2.06300
Zr1335     Zr  0.15724137  0.86062350  0.29681270     2.10000
Zr1336     Zr  0.06399562  0.75850780  0.29300723     1.78800
O1337       O  0.22048242  0.91635185  0.29975460    -0.93600
O1338       O  0.01134122  0.69609336  0.28905696    -0.41400
O1339       O  0.12342916  0.79164997  0.29886946    -0.78000
O1340       O  0.10964548  0.73575963  0.29105555    -0.96700
O1341       O  0.18890604  0.77955823  0.28605358    -0.90000
O1342       O  0.20474304  0.84081601  0.29474396    -0.92900
C1343       C  0.01795152  0.79958382  0.28447823     1.00900
C1344       C  0.13940858  0.92231341  0.28750192     1.13800
C1345       C  0.08503761  0.76720595  0.26832306     1.04600
O1346       O  0.07408988  0.67909338  0.27808998    -0.95000
O1347       O  0.14097388  0.69305778  0.28421981    -0.90800
O1348       O  0.15741715  0.70622057  0.29432029    -0.83900
C1349       C  0.14937704  0.68452076  0.28952660     1.11200
O1350       O  0.24273244  0.90190393  0.27659230    -0.97000
Zr1351     Zr  0.22124425  0.84834786  0.28402268     1.88900
O1352       O  0.24115857  0.79271570  0.29636424    -0.73600
O1353       O  0.17127922  0.74294370  0.27239285    -0.52900
O1354       O  0.24793477  0.83199500  0.27507733    -0.97600
O1355       O  0.27540783  0.91116563  0.28760249    -0.54800
O1356       O  0.26990729  0.83502569  0.28838681    -0.74200
C1357       C  0.27073080  0.81432017  0.29287880     0.98200
O1358       O  0.17445458  0.72853932  0.30439682    -0.63000
O1359       O  0.12655892  0.88299000  0.30434807    -0.57800
O1360       O  0.16770652  0.79018111  0.30739762    -0.94500
O1361       O  0.15617449  0.84129780  0.30742282    -0.92900
O1362       O  0.03912753  0.77495865  0.30214416    -0.93200
O1363       O  0.03632124  0.70695608  0.30079647    -0.92000
C1364       C  0.16080937  0.81503656  0.31019020     1.17000
H1365       H  0.08140897  0.83877419  0.29204159     0.33000
H1366       H  0.09630730  0.70816731  0.29210740     0.43800
H1367       H  0.22751310  0.85424862  0.29738113     0.37400
H1368       H  0.16835539  0.81725026  0.27371515     0.33800
H1369       H  0.98690558  0.69374443  0.29078663     0.25600
H1370       H  0.19525040  0.74740952  0.27460273     0.31600
H1371       H  0.27630029  0.84333156  0.27598023     0.37500
H1372       H  0.05957755  0.80221615  0.30317290     0.31900
H1373       H  0.14376719  0.91189608  0.30460214     0.30800
H1374       H  0.21405592  0.93045032  0.30291900     0.32500
H1375       H  0.29904839  0.91392612  0.28549717     0.31500
H1376       H  0.05861489  0.70354235  0.30210343     0.35500
H1377       H  0.19766933  0.74535455  0.30698892     0.28200
H1378       H  0.11342817  0.87134289  0.26910916     0.32400
H1379       H  0.26851991  0.90686896  0.27502797     0.35300
H1380       H  0.10211261  0.87897002  0.30236035     0.27900
H1381       H  0.15136429  0.71995276  0.30712894     0.40700
H1382       H  0.05825844  0.67068353  0.28191905     0.30800
H1383       H  0.00992993  0.70061315  0.28459672     0.38400
H1384       H  0.27939215  0.90710148  0.29198663     0.30300
H1385       H  0.15835006  0.71504741  0.27109160     0.30300
H1386       H  0.15372138  0.87185157  0.26917934     0.30600
Zr1387     Zr  0.15779710  0.86965198  0.36967307     2.17500
O1388       O  0.17820417  0.91958715  0.36164995    -0.51800
O1389       O  0.08854991  0.85149459  0.37050737    -0.75000
O1390       O  0.13807385  0.83974265  0.35946024    -0.81700
O1391       O  0.19731448  0.95327767  0.38117989    -0.83500
O1392       O  0.14466690  0.78558669  0.35931831    -0.79100
O1393       O  0.16291104  0.93171828  0.37221509    -0.90700
O1394       O  0.06385095  0.81170088  0.37888187    -0.76700
O1395       O  0.12268776  0.80188477  0.37235324    -0.86200
O1396       O  0.14732620  0.86743542  0.38052441    -0.85900
O1397       O  0.20121252  0.84592667  0.36669997    -0.72600
O1398       O  0.22212277  0.90573118  0.37432315    -0.84800
Zr1399     Zr  0.21884500  0.80974806  0.38505802     2.26400
Zr1400     Zr  0.16574845  0.77793220  0.36954672     2.06300
Zr1401     Zr  0.21075023  0.90259313  0.38521103     2.10000
Zr1402     Zr  0.11369794  0.79990741  0.38323875     1.78800
O1403       O  0.26667542  0.96792346  0.38707665    -0.93600
O1404       O  0.05969707  0.73424368  0.38090544    -0.41400
O1405       O  0.17675957  0.83464507  0.38817037    -0.78000
O1406       O  0.15476019  0.77360861  0.38046689    -0.96700
O1407       O  0.22917527  0.81220728  0.37423709    -0.90000
O1408       O  0.25334739  0.87775057  0.38237363    -0.92900
C1409       C  0.06058909  0.83047897  0.37429795     1.00900
C1410       C  0.17891057  0.95709988  0.37653864     1.13800
C1411       C  0.13747597  0.81058365  0.35664882     1.04600
O1412       O  0.10187736  0.71877382  0.36828889    -0.95000
O1413       O  0.17835115  0.72714957  0.37334888    -0.90800
O1414       O  0.20836849  0.74454572  0.38269954    -0.83900
C1415       C  0.19343565  0.72057398  0.37813919     1.11200
O1416       O  0.28558274  0.93061705  0.36371554    -0.97000
Zr1417     Zr  0.26415727  0.87975911  0.37160766     1.88900
O1418       O  0.28307098  0.81714177  0.38312490    -0.73600
O1419       O  0.19643188  0.75812039  0.36162734    -0.52900
O1420       O  0.28338197  0.86000469  0.36217428    -0.97600
O1421       O  0.32312417  0.93991857  0.37479721    -0.54800
O1422       O  0.30864962  0.85619623  0.37470494    -0.74200
C1423       C  0.30953480  0.83376775  0.37895048     0.98200
O1424       O  0.19982245  0.76945381  0.39436505    -0.63000
O1425       O  0.17149842  0.90819130  0.39342051    -0.57800
O1426       O  0.25177472  0.84793461  0.39421944    -0.94500
O1427       O  0.24562006  0.90240082  0.39460242    -0.92900
O1428       O  0.09236038  0.82295622  0.39205599    -0.93200
O1429       O  0.09134874  0.75315716  0.39174297    -0.92000
C1430       C  0.25787804  0.87993852  0.39682526     1.17000
H1431       H  0.13166821  0.87924532  0.38162384     0.33000
H1432       H  0.14183282  0.74648407  0.38178946     0.43800
H1433       H  0.27834859  0.89168463  0.38447298     0.37400
H1434       H  0.20622452  0.84901898  0.36232151     0.33800
H1435       H  0.03597045  0.73381147  0.38255840     0.25600
H1436       H  0.17426085  0.73714136  0.35926829     0.31600
H1437       H  0.27871567  0.83322147  0.36303515     0.37500
H1438       H  0.06341290  0.81003238  0.39163118     0.31900
H1439       H  0.17105324  0.89054773  0.39672180     0.30800
H1440       H  0.25733520  0.97961934  0.39023013     0.32500
H1441       H  0.33670922  0.93144764  0.37774370     0.31500
H1442       H  0.11577757  0.75821879  0.39386314     0.35500
H1443       H  0.18856166  0.78146214  0.39711517     0.28200
H1444       H  0.15366846  0.91439863  0.35955261     0.32400
H1445       H  0.31247811  0.93680769  0.36255006     0.35300
H1446       H  0.18810389  0.93504686  0.39508992     0.27900
H1447       H  0.17680484  0.74402959  0.39314826     0.40700
H1448       H  0.09986538  0.70157650  0.37177474     0.30800
H1449       H  0.05656352  0.73395199  0.37637537     0.38400
H1450       H  0.31325952  0.95405529  0.37735610     0.30300
H1451       H  0.20897374  0.78069068  0.35874976     0.30300
H1452       H  0.19270209  0.91295400  0.35858661     0.30600
Zr1453     Zr  0.71701224  0.86368779  0.28026747     2.17500
O1454       O  0.74311541  0.84964088  0.27101900    -0.51800
O1455       O  0.77173873  0.93044779  0.28187052    -0.75000
O1456       O  0.70642646  0.89399776  0.27126731    -0.81700
O1457       O  0.76167117  0.81972241  0.29083097    -0.83500
O1458       O  0.64628207  0.88922563  0.27186952    -0.79100
O1459       O  0.76925456  0.84774333  0.28136759    -0.90700
O1460       O  0.75610270  0.95620840  0.29002029    -0.76700
O1461       O  0.68170691  0.89577968  0.28326964    -0.86200
O1462       O  0.72791901  0.87522279  0.29103479    -0.85900
O1463       O  0.64918330  0.81948137  0.27770064    -0.72600
O1464       O  0.69203287  0.80021572  0.28491320    -0.84800
Zr1465     Zr  0.59985114  0.79901744  0.29661923     2.26400
Zr1466     Zr  0.61383188  0.85125964  0.28113513     2.06300
Zr1467     Zr  0.70254830  0.81227030  0.29572271     2.10000
Zr1468     Zr  0.69241570  0.90722898  0.29397917     1.78800
O1469       O  0.69738981  0.74910175  0.29800537    -0.93600
O1470       O  0.68276741  0.96118057  0.29066771    -0.41400
O1471       O  0.66749378  0.84455642  0.29878573    -0.78000
O1472       O  0.62375056  0.86312236  0.29201724    -0.96700
O1473       O  0.58850061  0.78793983  0.28583912    -0.90000
O1474       O  0.63486194  0.76664359  0.29352049    -0.92900
C1475       C  0.77970694  0.95819236  0.28576340     1.00900
C1476       C  0.77988741  0.83262606  0.28568850     1.13800
C1477       C  0.67956601  0.90055667  0.26919970     1.04600
O1478       O  0.60299522  0.90721231  0.28103018    -0.95000
O1479       O  0.54855273  0.83271633  0.28506505    -0.90800
O1480       O  0.54403667  0.80868426  0.29471531    -0.83900
C1481       C  0.53011757  0.81896577  0.29018349     1.11200
O1482       O  0.64461171  0.74030385  0.27302021    -0.97000
Zr1483     Zr  0.62410817  0.75681427  0.28264493     1.88900
O1484       O  0.55286883  0.72845416  0.29595594    -0.73600
O1485       O  0.57054452  0.81660276  0.27250696    -0.52900
O1486       O  0.57059860  0.73488258  0.27521768    -0.97600
O1487       O  0.64045414  0.70469707  0.28355248    -0.54800
O1488       O  0.56744880  0.70366360  0.28756991    -0.74200
C1489       C  0.54641922  0.70006578  0.29229838     0.98200
O1490       O  0.56266650  0.79223520  0.30601029    -0.63000
O1491       O  0.75783152  0.84619974  0.30280886    -0.57800
O1492       O  0.62377848  0.79990886  0.30707351    -0.94500
O1493       O  0.68416292  0.80544334  0.30650032    -0.92900
O1494       O  0.73617531  0.93154237  0.30284757    -0.93200
O1495       O  0.66659870  0.92784411  0.30251114    -0.92000
C1496       C  0.65491676  0.80279891  0.30954934     1.17000
H1497       H  0.75553856  0.89081689  0.29200015     0.33000
H1498       H  0.60906444  0.87516254  0.29351344     0.43800
H1499       H  0.62623051  0.74232887  0.29573592     0.37400
H1500       H  0.64641263  0.81571068  0.27328938     0.33800
H1501       H  0.70311167  0.98445989  0.29291503     0.25600
H1502       H  0.54919882  0.79200683  0.27432036     0.31600
H1503       H  0.55768934  0.70581598  0.27521358     0.37500
H1504       H  0.74414555  0.91157613  0.30355460     0.31900
H1505       H  0.76925241  0.82880951  0.30321039     0.30800
H1506       H  0.72244152  0.75589826  0.30009262     0.32500
H1507       H  0.61618306  0.68031777  0.28234638     0.31500
H1508       H  0.64896332  0.90315738  0.30473781     0.35500
H1509       H  0.55860877  0.81517573  0.30614258     0.28200
H1510       H  0.76131080  0.87558637  0.26917335     0.32400
H1511       H  0.62310462  0.71377001  0.27186962     0.35300
H1512       H  0.77794647  0.86950771  0.30054581     0.27900
H1513       H  0.53622103  0.76914607  0.30531790     0.40700
H1514       H  0.59317496  0.90735804  0.27683118     0.30800
H1515       H  0.69152025  0.96610563  0.28631483     0.38400
H1516       H  0.64290356  0.70182668  0.28803863     0.30300
H1517       H  0.55782680  0.83223780  0.27148900     0.30300
H1518       H  0.72064472  0.83698327  0.26812641     0.30600
Zr1519     Zr  0.72957873  0.83187740  0.36912574     2.17500
O1520       O  0.77490013  0.82932019  0.36170015    -0.51800
O1521       O  0.77792114  0.90239465  0.36983310    -0.75000
O1522       O  0.71432830  0.84125162  0.35851997    -0.81700
O1523       O  0.77520894  0.79654178  0.38127746    -0.83500
O1524       O  0.65551888  0.83889987  0.35847230    -0.79100
O1525       O  0.78249078  0.81941064  0.37146265    -0.90700
O1526       O  0.76257665  0.92699872  0.37816907    -0.76700
O1527       O  0.69479713  0.86536061  0.37149850    -0.86200
O1528       O  0.73725952  0.84434512  0.37994148    -0.85900
O1529       O  0.66281480  0.78533418  0.36623360    -0.72600
O1530       O  0.70315386  0.76848830  0.37406620    -0.84800
Zr1531     Zr  0.60787417  0.77017025  0.38455954     2.26400
Zr1532     Zr  0.62820157  0.81947727  0.36876303     2.06300
Zr1533     Zr  0.71019965  0.78164225  0.38490075     2.10000
Zr1534     Zr  0.70126702  0.87638139  0.38235889     1.78800
O1535       O  0.71464439  0.72221843  0.38592449    -0.93600
O1536       O  0.69016384  0.93019288  0.37955240    -0.41400
O1537       O  0.67466277  0.81453143  0.38761385    -0.78000
O1538       O  0.63432392  0.83311161  0.37960674    -0.96700
O1539       O  0.60054706  0.75709564  0.37379023    -0.90000
O1540       O  0.64329511  0.73716786  0.38221897    -0.92900
C1541       C  0.78467239  0.93040861  0.37360210     1.00900
C1542       C  0.79450006  0.80893003  0.37619758     1.13800
C1543       C  0.68597781  0.84226507  0.35570895     1.04600
O1544       O  0.63105777  0.88194254  0.36678915    -0.95000
O1545       O  0.56491639  0.80780718  0.37242196    -0.90800
O1546       O  0.55199369  0.77769796  0.38177257    -0.83900
C1547       C  0.54299618  0.79230868  0.37717112     1.11200
O1548       O  0.66701294  0.70161073  0.36409637    -0.97000
Zr1549     Zr  0.63547878  0.72376736  0.37151301     1.88900
O1550       O  0.55415839  0.70362108  0.38304216    -0.73600
O1551       O  0.57689436  0.78381209  0.36112190    -0.52900
O1552       O  0.59649252  0.70310078  0.36208477    -0.97600
O1553       O  0.63715736  0.66522930  0.37488114    -0.54800
O1554       O  0.56908255  0.67700443  0.37491261    -0.74200
C1555       C  0.54576169  0.67580866  0.37916753     0.98200
O1556       O  0.58024514  0.78726263  0.39333237    -0.63000
O1557       O  0.75516405  0.81511926  0.39342083    -0.57800
O1558       O  0.61377467  0.74082208  0.39411180    -0.94500
O1559       O  0.67531993  0.74929553  0.39437622    -0.92900
O1560       O  0.74581336  0.90054465  0.39115097    -0.93200
O1561       O  0.67353589  0.89672345  0.39065174    -0.92000
C1562       C  0.64093592  0.73667113  0.39672095     1.17000
H1563       H  0.76467038  0.86071892  0.38102017     0.33000
H1564       H  0.61946576  0.84567447  0.38076246     0.43800
H1565       H  0.63296537  0.71291241  0.38451064     0.37400
H1566       H  0.66033747  0.77847292  0.36192215     0.33800
H1567       H  0.71180012  0.95372123  0.38156712     0.25600
H1568       H  0.57334817  0.80425700  0.35902934     0.31600
H1569       H  0.57464909  0.70832416  0.36285137     0.37500
H1570       H  0.75912222  0.92957541  0.39083032     0.31900
H1571       H  0.76868085  0.79985738  0.39412738     0.30800
H1572       H  0.73682104  0.72950325  0.38880353     0.32500
H1573       H  0.61639764  0.64344826  0.37243002     0.31500
H1574       H  0.65696883  0.87233793  0.39301715     0.35500
H1575       H  0.60036805  0.79601269  0.39662380     0.28200
H1576       H  0.78693248  0.85471934  0.35947028     0.32400
H1577       H  0.64562872  0.67685576  0.36232491     0.35300
H1578       H  0.77573817  0.84041604  0.39167251     0.27900
H1579       H  0.58051495  0.81168948  0.39209595     0.40700
H1580       H  0.61979228  0.88697484  0.37052908     0.30800
H1581       H  0.69634599  0.93448411  0.37509741     0.38400
H1582       H  0.62674157  0.65983753  0.37913910     0.30300
H1583       H  0.58892478  0.77487285  0.35796419     0.30300
H1584       H  0.75829021  0.80907633  0.35863726     0.30600
Zr1585     Zr  0.87295406  0.71758061  0.21853370     2.17500
O1586       O  0.85544816  0.74001522  0.22784730    -0.51800
O1587       O  0.93649997  0.77501095  0.21671466    -0.75000
O1588       O  0.91114813  0.71503183  0.22720296    -0.81700
O1589       O  0.82087334  0.75325584  0.20819917    -0.83500
O1590       O  0.90842112  0.65587334  0.22713507    -0.79100
O1591       O  0.85643530  0.76867845  0.21706084    -0.90700
O1592       O  0.96514762  0.76142584  0.20871314    -0.76700
O1593       O  0.90997175  0.68775500  0.21543756    -0.86200
O1594       O  0.88099553  0.72713603  0.20766409    -0.85900
O1595       O  0.83394151  0.64995087  0.22155080    -0.72600
O1596       O  0.80786909  0.68674094  0.21425885    -0.84800
Zr1597     Zr  0.81451160  0.59723265  0.20284528     2.26400
Zr1598     Zr  0.87087176  0.62001478  0.21810008     2.06300
Zr1599     Zr  0.81624812  0.69496802  0.20335931     2.10000
Zr1600     Zr  0.91809067  0.69695216  0.20464801     1.78800
O1601       O  0.74789185  0.67726925  0.20181911    -0.93600
O1602       O  0.97676212  0.69249461  0.20676273    -0.41400
O1603       O  0.85381378  0.66532331  0.20032607    -0.78000
O1604       O  0.88014764  0.62805411  0.20713205    -0.96700
O1605       O  0.80632204  0.58820948  0.21369356    -0.90000
O1606       O  0.77659971  0.62664682  0.20591034    -0.92900
C1607       C  0.96504595  0.78413972  0.21296935     1.00900
C1608       C  0.83647678  0.77486585  0.21298286     1.13800
C1609       C  0.91985368  0.69004044  0.22946277     1.04600
O1610       O  0.93216889  0.61874426  0.21878276    -0.95000
O1611       O  0.86100466  0.55731739  0.21451121    -0.90800
O1612       O  0.83315132  0.54770840  0.20504323    -0.83900
C1613       C  0.84768710  0.53752868  0.20951091     1.11200
O1614       O  0.75057506  0.64126180  0.22598609    -0.97000
Zr1615     Zr  0.76986195  0.61855621  0.21686464     1.88900
O1616       O  0.74646808  0.54406422  0.20412569    -0.73600
O1617       O  0.83901196  0.57539102  0.22671968    -0.52900
O1618       O  0.75326325  0.57046446  0.22509787    -0.97600
O1619       O  0.71215349  0.62571649  0.21533291    -0.54800
O1620       O  0.72102220  0.55587902  0.21273405    -0.74200
C1621       C  0.71900651  0.53461075  0.20812241     0.98200
O1622       O  0.80611193  0.55737463  0.19373233    -0.63000
O1623       O  0.83145682  0.74714433  0.19588442    -0.57800
O1624       O  0.81400071  0.61920795  0.19222779    -0.94500
O1625       O  0.81554231  0.67780224  0.19253933    -0.92900
O1626       O  0.93280969  0.73983916  0.19574061    -0.93200
O1627       O  0.93871835  0.67415632  0.19572162    -0.92000
C1628       C  0.81531761  0.64927523  0.18958086     1.17000
H1629       H  0.89428695  0.75466722  0.20656410     0.33000
H1630       H  0.89433440  0.61546772  0.20564216     0.43800
H1631       H  0.75153952  0.61468152  0.20381293     0.37400
H1632       H  0.83125458  0.64816778  0.22598261     0.33800
H1633       H  0.99844874  0.71578384  0.20471144     0.25600
H1634       H  0.85824895  0.56757942  0.22806702     0.31600
H1635       H  0.75672250  0.54924719  0.22327553     0.37500
H1636       H  0.90841574  0.74087155  0.19501774     0.31900
H1637       H  0.80965151  0.75289195  0.19621435     0.30800
H1638       H  0.74154976  0.68838735  0.20544735     0.32500
H1639       H  0.69144331  0.60532161  0.21797794     0.31500
H1640       H  0.91383865  0.65324857  0.19390444     0.35500
H1641       H  0.83220135  0.56004250  0.19296046     0.28200
H1642       H  0.88059600  0.76173576  0.22944745     0.32400
H1643       H  0.72828440  0.61756754  0.22784996     0.35300
H1644       H  0.85479707  0.77084129  0.19753644     0.27900
H1645       H  0.78904044  0.52972470  0.19504122     0.40700
H1646       H  0.94226196  0.62303683  0.21450474     0.30800
H1647       H  0.98178652  0.69814137  0.21122331     0.38400
H1648       H  0.70323517  0.61632034  0.21108256     0.30300
H1649       H  0.83870443  0.59216251  0.23010519     0.30300
H1650       H  0.84741149  0.71833924  0.23085286     0.30600
Zr1651     Zr  0.84799317  0.72273764  0.12993983     2.17500
O1652       O  0.85704751  0.77252849  0.13753234    -0.51800
O1653       O  0.91827733  0.77048026  0.12868157    -0.75000
O1654       O  0.85596160  0.70588729  0.14053103    -0.81700
O1655       O  0.80699751  0.76693803  0.11821011    -0.83500
O1656       O  0.85177701  0.64612320  0.14072936    -0.79100
O1657       O  0.83136603  0.77357470  0.12790312    -0.90700
O1658       O  0.94058656  0.75229776  0.12039773    -0.76700
O1659       O  0.87901709  0.68556500  0.12748192    -0.86200
O1660       O  0.85881895  0.72948541  0.11908068    -0.85900
O1661       O  0.80031566  0.65646420  0.13296314    -0.72600
O1662       O  0.78410795  0.69785521  0.12522515    -0.84800
Zr1663     Zr  0.78125282  0.60024551  0.11477651     2.26400
Zr1664     Zr  0.83194198  0.61943238  0.13039437     2.06300
Zr1665     Zr  0.79569811  0.70377258  0.11431837     2.10000
Zr1666     Zr  0.88836256  0.69115612  0.11656677     1.78800
O1667       O  0.74239283  0.71657483  0.11199419    -0.93600
O1668       O  0.94175860  0.67854709  0.11892438    -0.41400
O1669       O  0.82615505  0.66620763  0.11153753    -0.78000
O1670       O  0.84438392  0.62493869  0.11953105    -0.96700
O1671       O  0.76920152  0.59357208  0.12556563    -0.90000
O1672       O  0.74996865  0.63739760  0.11717644    -0.92900
C1673       C  0.94517699  0.77604789  0.12476399     1.00900
C1674       C  0.81897882  0.78540572  0.12336358     1.13800
C1675       C  0.85581717  0.67711698  0.14340195     1.04600
O1676       O  0.89268073  0.61790216  0.13185877    -0.95000
O1677       O  0.81795779  0.55540076  0.12668628    -0.90800
O1678       O  0.78796509  0.54347499  0.11735365    -0.83900
C1679       C  0.80257058  0.53390514  0.12188463     1.11200
O1680       O  0.72043217  0.66117847  0.13616643    -0.97000
Zr1681     Zr  0.73830425  0.63078484  0.12792439     1.88900
O1682       O  0.71394575  0.54908181  0.11633293    -0.73600
O1683       O  0.79537321  0.56797173  0.13797760    -0.52900
O1684       O  0.71383021  0.58895646  0.13702394    -0.97600
O1685       O  0.68511743  0.64200855  0.12475627    -0.54800
O1686       O  0.68873176  0.56560744  0.12443787    -0.74200
C1687       C  0.68639896  0.54169518  0.12018988     0.98200
O1688       O  0.79637809  0.57252185  0.10579502    -0.63000
O1689       O  0.83736054  0.74744360  0.10618125    -0.57800
O1690       O  0.75300932  0.60734373  0.10526144    -0.94500
O1691       O  0.76090413  0.66871035  0.10497899    -0.92900
O1692       O  0.91354070  0.73566421  0.10778867    -0.93200
O1693       O  0.90249016  0.66004841  0.10799613    -0.92000
C1694       C  0.74853582  0.63427919  0.10266839     1.17000
H1695       H  0.87549909  0.75672231  0.11792906     0.33000
H1696       H  0.85614947  0.60943461  0.11832068     0.43800
H1697       H  0.72533144  0.62755360  0.11500091     0.37400
H1698       H  0.79336237  0.65409167  0.13726924     0.33800
H1699       H  0.96463534  0.69895377  0.11661095     0.25600
H1700       H  0.81543902  0.56366616  0.14003458     0.31600
H1701       H  0.72192951  0.56898578  0.13643722     0.37500
H1702       H  0.94054740  0.74038185  0.10715452     0.31900
H1703       H  0.84298667  0.73049010  0.10348447     0.30800
H1704       H  0.74951578  0.73032375  0.10796904     0.32500
H1705       H  0.67012931  0.62164284  0.12161247     0.31500
H1706       H  0.87764336  0.64668296  0.10562123     0.35500
H1707       H  0.80715015  0.59371438  0.10266408     0.28200
H1708       H  0.88014359  0.77773933  0.14006890     0.32400
H1709       H  0.69204449  0.64321722  0.13692867     0.35300
H1710       H  0.81962319  0.75315669  0.10370016     0.27900
H1711       H  0.81946290  0.57022879  0.10701267     0.40700
H1712       H  0.91029281  0.64240557  0.13412619     0.30800
H1713       H  0.94821022  0.68617904  0.12330373     0.38400
H1714       H  0.69831244  0.66701185  0.12241982     0.30300
H1715       H  0.78691448  0.58021446  0.14117257     0.30300
H1716       H  0.83412094  0.75959156  0.14033004     0.30600
Zr1717     Zr  0.26842942  0.13999854  0.21949233     2.17500
O1718       O  0.24205157  0.09361979  0.22803854    -0.51800
O1719       O  0.21477377  0.15343521  0.21867783    -0.75000
O1720       O  0.27660232  0.17558095  0.22903203    -0.81700
O1721       O  0.22004469  0.06160394  0.20747670    -0.83500
O1722       O  0.33608862  0.23171945  0.22879569    -0.79100
O1723       O  0.21242932  0.07654170  0.21732300    -0.90700
O1724       O  0.22808732  0.19609285  0.21076123    -0.76700
O1725       O  0.30298384  0.20840302  0.21722238    -0.86200
O1726       O  0.25788855  0.14455389  0.20878567    -0.85900
O1727       O  0.33547462  0.16174783  0.22215588    -0.72600
O1728       O  0.29319471  0.10270859  0.21432190    -0.84800
Zr1729     Zr  0.38683143  0.20012450  0.20351895     2.26400
Zr1730     Zr  0.37038286  0.23009249  0.21949822     2.06300
Zr1731     Zr  0.28472932  0.10965409  0.20359374     2.10000
Zr1732     Zr  0.29251496  0.21304372  0.20658519     1.78800
O1733       O  0.29327917  0.05276440  0.20224727    -0.93600
O1734       O  0.30114358  0.27567107  0.21019918    -0.41400
O1735       O  0.31919136  0.17835280  0.20126282    -0.78000
O1736       O  0.36128879  0.23720653  0.20870430    -0.96700
O1737       O  0.39636487  0.19464464  0.21420769    -0.90000
O1738       O  0.35232494  0.13134751  0.20577407    -0.92900
C1739       C  0.20573524  0.17359654  0.21508235     1.00900
C1740       C  0.20070521  0.05456946  0.21253367     1.13800
C1741       C  0.30282450  0.20841523  0.23135679     1.04600
O1742       O  0.38453745  0.29742206  0.22095846    -0.95000
O1743       O  0.43667936  0.27780583  0.21624222    -0.90800
O1744       O  0.44407465  0.26253421  0.20644204    -0.83900
C1745       C  0.45674115  0.28436599  0.21126782     1.11200
O1746       O  0.33626400  0.08224529  0.22543216    -0.97000
Zr1747     Zr  0.36103819  0.12652776  0.21659642     1.88900
O1748       O  0.43650714  0.18000118  0.20396768    -0.73600
O1749       O  0.41105227  0.23105088  0.22806451    -0.52900
O1750       O  0.40954229  0.15080638  0.22486798    -0.97600
O1751       O  0.35012608  0.06114323  0.21411825    -0.54800
O1752       O  0.42148985  0.13753602  0.21197741    -0.74200
C1753       C  0.44359622  0.15809748  0.20752854     0.98200
O1754       O  0.42230420  0.24011332  0.19460388    -0.63000
O1755       O  0.23732895  0.07838677  0.19525355    -0.57800
O1756       O  0.36754946  0.17905708  0.19283872    -0.94500
O1757       O  0.30361762  0.13030262  0.19301982    -0.92900
O1758       O  0.24865300  0.19401450  0.19772204    -0.93200
O1759       O  0.31647677  0.26250275  0.19846836    -0.92000
C1760       C  0.33492615  0.15511308  0.19016669     1.17000
H1761       H  0.23035034  0.13298390  0.20776905     0.33000
H1762       H  0.37626325  0.26458413  0.20753223     0.43800
H1763       H  0.36205383  0.11750433  0.20331057     0.37400
H1764       H  0.33755393  0.15859681  0.22653254     0.33800
H1765       H  0.28511726  0.26923587  0.21399940     0.25600
H1766       H  0.43672677  0.23797402  0.22619168     0.31600
H1767       H  0.42367891  0.13592968  0.22444882     0.37500
H1768       H  0.24366560  0.16743962  0.19660234     0.31900
H1769       H  0.22424983  0.04970820  0.19602682     0.30800
H1770       H  0.30501768  0.05617687  0.19809483     0.32500
H1771       H  0.37399400  0.06117742  0.21561159     0.31500
H1772       H  0.33123844  0.25467894  0.19565287     0.35500
H1773       H  0.42467839  0.26616852  0.19528897     0.28200
H1774       H  0.22512363  0.10106698  0.23038785     0.32400
H1775       H  0.35555431  0.07343740  0.22618451     0.35300
H1776       H  0.21675716  0.08550857  0.19598423     0.27900
H1777       H  0.44943961  0.24470537  0.19497565     0.40700
H1778       H  0.39491409  0.30427252  0.22521375     0.30800
H1779       H  0.32868246  0.29039301  0.21167171     0.38400
H1780       H  0.35203491  0.06067787  0.20957476     0.30300
H1781       H  0.41638481  0.25451796  0.23050772     0.30300
H1782       H  0.26483770  0.10048899  0.23076039     0.30600
Zr1783     Zr  0.27117005  0.11174187  0.13084834     2.17500
O1784       O  0.23837360  0.06126217  0.13872703    -0.51800
O1785       O  0.21821626  0.12703028  0.13021980    -0.75000
O1786       O  0.28299285  0.13942922  0.14127644    -0.81700
O1787       O  0.22999072  0.02954267  0.11884676    -0.83500
O1788       O  0.34067890  0.19721462  0.14118854    -0.79100
O1789       O  0.21787162  0.04746621  0.12821933    -0.90700
O1790       O  0.22674301  0.15986178  0.12120565    -0.76700
O1791       O  0.30009614  0.17943224  0.12824056    -0.86200
O1792       O  0.26193494  0.11372340  0.12000208    -0.85900
O1793       O  0.33895179  0.13873344  0.13365715    -0.72600
O1794       O  0.30189193  0.07867409  0.12598573    -0.84800
Zr1795     Zr  0.39189910  0.17830893  0.11531914     2.26400
Zr1796     Zr  0.36792489  0.20664229  0.13085697     2.06300
Zr1797     Zr  0.29352473  0.08238762  0.11511143     2.10000
Zr1798     Zr  0.29211711  0.18119749  0.11736439     1.78800
O1799       O  0.28634110  0.01759010  0.11367216    -0.93600
O1800       O  0.29300650  0.24146668  0.12042240    -0.41400
O1801       O  0.32417893  0.15044335  0.11228815    -0.78000
O1802       O  0.36013185  0.21069211  0.11998522    -0.96700
O1803       O  0.39996973  0.17529914  0.12610551    -0.90000
O1804       O  0.36133602  0.11018456  0.11789537    -0.92900
C1805       C  0.20694613  0.14238414  0.12603514     1.00900
C1806       C  0.20860945  0.02361834  0.12367624     1.13800
C1807       C  0.31059718  0.16989023  0.14400175     1.04600
O1808       O  0.35868391  0.26327037  0.13196161    -0.95000
O1809       O  0.42858505  0.26185195  0.12717136    -0.90800
O1810       O  0.44283358  0.24526248  0.11786047    -0.83900
C1811       C  0.45009529  0.26943078  0.12234600     1.11200
O1812       O  0.34257862  0.05966089  0.13697576    -0.97000
Zr1813     Zr  0.37012818  0.10756587  0.12863657     1.88900
O1814       O  0.44994182  0.17225198  0.11708238    -0.73600
O1815       O  0.42115559  0.22869315  0.13832665    -0.52900
O1816       O  0.41251889  0.13034157  0.13769131    -0.97600
O1817       O  0.36791764  0.04654610  0.12565331    -0.54800
O1818       O  0.43710077  0.13090119  0.12514966    -0.74200
C1819       C  0.46011280  0.15426948  0.12097203     0.98200
O1820       O  0.41478237  0.22079644  0.10624499    -0.63000
O1821       O  0.25070981  0.07554268  0.10649093    -0.57800
O1822       O  0.38927124  0.14205863  0.10604072    -0.94500
O1823       O  0.33057498  0.08485658  0.10587644    -0.92900
O1824       O  0.25206896  0.15867750  0.10805710    -0.93200
O1825       O  0.31535385  0.23135087  0.10935705    -0.92000
C1826       C  0.36459753  0.10889873  0.10358849     1.17000
H1827       H  0.23439255  0.10024706  0.11890700     0.33000
H1828       H  0.37273986  0.23787634  0.11870622     0.43800
H1829       H  0.37350525  0.09734043  0.11578246     0.37400
H1830       H  0.34189479  0.13561457  0.13799990     0.33800
H1831       H  0.27129072  0.24128186  0.11806640     0.25600
H1832       H  0.42049612  0.25005477  0.14065533     0.31600
H1833       H  0.43036139  0.11946844  0.13723148     0.37500
H1834       H  0.22692132  0.15731099  0.10914902     0.31900
H1835       H  0.26817389  0.09536043  0.10343735     0.30800
H1836       H  0.26957200  0.00685901  0.10996274     0.32500
H1837       H  0.38947717  0.05437033  0.12263339     0.31500
H1838       H  0.34046123  0.23378846  0.10794296     0.35500
H1839       H  0.39438455  0.20690178  0.10305559     0.28200
H1840       H  0.22057389  0.06822268  0.14092405     0.32400
H1841       H  0.36321323  0.05321718  0.13806707     0.35300
H1842       H  0.24380586  0.04992652  0.10459744     0.27900
H1843       H  0.41190371  0.24375192  0.10732463     0.40700
H1844       H  0.36797411  0.27315728  0.13618129     0.30800
H1845       H  0.28368693  0.23697742  0.12474712     0.38400
H1846       H  0.34354923  0.03218541  0.12318363     0.30300
H1847       H  0.41238431  0.20678972  0.14131005     0.30300
H1848       H  0.25899254  0.06543160  0.14175610     0.30600
Zr1849     Zr  0.84177974  0.11088506  0.22029795     2.17500
O1850       O  0.88105576  0.12596985  0.22967436    -0.51800
O1851       O  0.82864879  0.04380445  0.21887874    -0.75000
O1852       O  0.80029572  0.07856050  0.22920216    -0.81700
O1853       O  0.92854378  0.15517900  0.20930237    -0.83500
O1854       O  0.74640941  0.08587749  0.22884637    -0.79100
O1855       O  0.90961239  0.12617365  0.21872583    -0.90700
O1856       O  0.78532742  0.01742430  0.21093828    -0.76700
O1857       O  0.77401766  0.07990223  0.21763079    -0.86200
O1858       O  0.83857649  0.09794356  0.20951901    -0.85900
O1859       O  0.81996081  0.15644122  0.22299098    -0.72600
O1860       O  0.88001468  0.17328603  0.21532076    -0.84800
Zr1861     Zr  0.78681273  0.17516162  0.20424825     2.26400
Zr1862     Zr  0.75229174  0.12548057  0.21990438     2.06300
Zr1863     Zr  0.87516608  0.16013976  0.20451390     2.10000
Zr1864     Zr  0.77048084  0.06645873  0.20697479     1.78800
O1865       O  0.93063215  0.22366343  0.20160185    -0.93600
O1866       O  0.70746215  0.01286838  0.21054232    -0.41400
O1867       O  0.80712088  0.12837570  0.20193477    -0.78000
O1868       O  0.74731462  0.11175295  0.20906414    -0.96700
O1869       O  0.79024869  0.18808662  0.21503491    -0.90000
O1870       O  0.85488759  0.20691448  0.20690038    -0.92900
C1871       C  0.80741510  0.01563163  0.21514598     1.00900
C1872       C  0.93501833  0.14239962  0.21437055     1.13800
C1873       C  0.76712274  0.07254795  0.23131730     1.04600
O1874       O  0.68502560  0.07084443  0.22065409    -0.95000
O1875       O  0.70488577  0.14427161  0.21652190    -0.90800
O1876       O  0.72221312  0.16623844  0.20673185    -0.83900
C1877       C  0.69911970  0.15701259  0.21139567     1.11200
O1878       O  0.90153183  0.23296572  0.22663483    -0.97000
Zr1879     Zr  0.85788170  0.21819794  0.21778936     1.88900
O1880       O  0.81154428  0.24611690  0.20485094    -0.73600
O1881       O  0.74828747  0.16092625  0.22883589    -0.52900
O1882       O  0.83809064  0.24671105  0.22607099    -0.97600
O1883       O  0.92513766  0.26916719  0.21545979    -0.54800
O1884       O  0.85065149  0.27015800  0.21328866    -0.74200
C1885       C  0.83330107  0.27412726  0.20858502     0.98200
O1886       O  0.75351595  0.18213052  0.19523632    -0.63000
O1887       O  0.89906702  0.12827182  0.19747534    -0.57800
O1888       O  0.80580859  0.17090090  0.19357394    -0.94500
O1889       O  0.85865056  0.16193914  0.19376283    -0.92900
O1890       O  0.78989369  0.04353969  0.19792699    -0.93200
O1891       O  0.72069268  0.04323746  0.19891359    -0.92000
C1892       C  0.83217445  0.16572656  0.19086996     1.17000
H1893       H  0.85011290  0.08196131  0.20848550     0.33000
H1894       H  0.72031669  0.09992059  0.20771339     0.43800
H1895       H  0.86993640  0.23090552  0.20457896     0.37400
H1896       H  0.82200036  0.16069925  0.22739452     0.33800
H1897       H  0.70424511  0.98926033  0.20836306     0.25600
H1898       H  0.75576997  0.18742172  0.22725282     0.31600
H1899       H  0.85560573  0.27551760  0.22567208     0.37500
H1900       H  0.81809285  0.06306407  0.19734264     0.31900
H1901       H  0.92777523  0.14648492  0.19715625     0.30800
H1902       H  0.93786936  0.21942006  0.19741494     0.32500
H1903       H  0.92823047  0.29321745  0.21746646     0.31500
H1904       H  0.72870512  0.06646144  0.19623514     0.35500
H1905       H  0.72628676  0.15956123  0.19531588     0.28200
H1906       H  0.87370882  0.10018778  0.23154934     0.32400
H1907       H  0.91116283  0.26085583  0.22769808     0.35300
H1908       H  0.89647039  0.10519042  0.19974100     0.27900
H1909       H  0.75101164  0.20560173  0.19605571     0.40700
H1910       H  0.67791596  0.06033800  0.21641050     0.30800
H1911       H  0.71188870  0.00861055  0.21490041     0.38400
H1912       H  0.92529346  0.27438827  0.21099441     0.30300
H1913       H  0.71978639  0.14854226  0.22971361     0.30300
H1914       H  0.87027976  0.13805416  0.23250447     0.30600
Zr1915     Zr  0.87896072  0.14854846  0.13105546     2.17500
O1916       O  0.92650067  0.15624244  0.13898465    -0.51800
O1917       O  0.85953856  0.07891500  0.12978242    -0.75000
O1918       O  0.85158239  0.13572712  0.14160535    -0.81700
O1919       O  0.96217350  0.18550718  0.11906427    -0.83500
O1920       O  0.79956019  0.14614784  0.14159789    -0.79100
O1921       O  0.94353580  0.15915462  0.12862717    -0.90700
O1922       O  0.81553001  0.05342717  0.12192451    -0.76700
O1923       O  0.81084613  0.11577124  0.12848026    -0.86200
O1924       O  0.87567266  0.13729304  0.12019894    -0.85900
O1925       O  0.85892215  0.19533542  0.13381849    -0.72600
O1926       O  0.91695079  0.21211261  0.12618953    -0.84800
Zr1927     Zr  0.82201614  0.21236216  0.11547424     2.26400
Zr1928     Zr  0.79047753  0.16219976  0.13114180     2.06300
Zr1929     Zr  0.91224948  0.20008600  0.11529962     2.10000
Zr1930     Zr  0.80799359  0.10579345  0.11756809     1.78800
O1931       O  0.97901728  0.25387459  0.11360486    -0.93600
O1932       O  0.74049685  0.05435786  0.11953852    -0.41400
O1933       O  0.84427305  0.16798445  0.11244890    -0.78000
O1934       O  0.78438785  0.14916890  0.12028311    -0.96700
O1935       O  0.82662486  0.22474124  0.12625889    -0.90000
O1936       O  0.89031684  0.24507856  0.11800566    -0.92900
C1937       C  0.83660684  0.05056551  0.12617335     1.00900
C1938       C  0.96754531  0.17126143  0.12407173     1.13800
C1939       C  0.82413126  0.13883831  0.14435905     1.04600
O1940       O  0.72985149  0.10053223  0.13298257    -0.95000
O1941       O  0.73951923  0.17438382  0.12728965    -0.90800
O1942       O  0.75715682  0.20307089  0.11783456    -0.83900
C1943       C  0.73326506  0.18905227  0.12241777     1.11200
O1944       O  0.94455527  0.27623944  0.13671593    -0.97000
Zr1945     Zr  0.89456974  0.25724846  0.12872182     1.88900
O1946       O  0.83196273  0.27726575  0.11732360    -0.73600
O1947       O  0.77306661  0.19777806  0.13853639    -0.52900
O1948       O  0.88057683  0.28292070  0.13802008    -0.97600
O1949       O  0.95652574  0.31235061  0.12510124    -0.54800
O1950       O  0.87263950  0.30280979  0.12555947    -0.74200
C1951       C  0.85017697  0.30414220  0.12137243     0.98200
O1952       O  0.78225325  0.19680891  0.10613423    -0.63000
O1953       O  0.91498950  0.16031886  0.10690349    -0.57800
O1954       O  0.86013405  0.24473399  0.10627734    -0.94500
O1955       O  0.91347973  0.23641808  0.10603188    -0.92900
O1956       O  0.82991867  0.08034788  0.10914725    -0.93200
O1957       O  0.76663695  0.08922587  0.10842526    -0.92000
C1958       C  0.89206451  0.24979939  0.10377905     1.17000
H1959       H  0.88662554  0.12083969  0.11911736     0.33000
H1960       H  0.75713891  0.13681656  0.11904196     0.43800
H1961       H  0.90484727  0.26984065  0.11585792     0.37400
H1962       H  0.86324591  0.20194368  0.13813990     0.33800
H1963       H  0.73828063  0.03049896  0.11759257     0.25600
H1964       H  0.75326284  0.17736673  0.14129065     0.31600
H1965       H  0.85325259  0.27746745  0.13748087     0.37500
H1966       H  0.81135945  0.05162124  0.10914757     0.31900
H1967       H  0.89667816  0.16017579  0.10374784     0.30800
H1968       H  0.98755083  0.24697662  0.10973486     0.32500
H1969       H  0.94902699  0.32802324  0.12243479     0.31500
H1970       H  0.75384372  0.10543363  0.10873440     0.35500
H1971       H  0.79327424  0.18500588  0.10329550     0.28200
H1972       H  0.91445610  0.13113246  0.14129782     0.32400
H1973       H  0.95675258  0.30512618  0.13715190     0.35300
H1974       H  0.94144579  0.17661230  0.10508010     0.27900
H1975       H  0.75614964  0.17446967  0.10725440     0.40700
H1976       H  0.71428711  0.10774090  0.13572925     0.30800
H1977       H  0.73960587  0.04925899  0.12402135     0.38400
H1978       H  0.96739019  0.30054140  0.12223742     0.30300
H1979       H  0.79671707  0.21251891  0.14114633     0.30300
H1980       H  0.92732444  0.17597799  0.14191872     0.30600
Zr1981     Zr  0.48280377  0.53816245  0.03656412     2.17500
O1982       O  0.48996368  0.58287704  0.02817171    -0.51800
O1983       O  0.41355624  0.52052587  0.03760781    -0.75000
O1984       O  0.46804538  0.50794517  0.02626256    -0.81700
O1985       O  0.52543788  0.62412651  0.04808168    -0.83500
O1986       O  0.47153410  0.45181479  0.02672186    -0.79100
O1987       O  0.49767255  0.60512212  0.03857635    -0.90700
O1988       O  0.39006184  0.48451983  0.04635993    -0.76700
O1989       O  0.44740190  0.47082540  0.03960230    -0.86200
O1990       O  0.47373729  0.53870530  0.04743929    -0.85900
O1991       O  0.52591568  0.51312068  0.03399247    -0.72600
O1992       O  0.54746605  0.57408656  0.04116328    -0.84800
Zr1993     Zr  0.54292226  0.47854461  0.05252798     2.26400
Zr1994     Zr  0.49025166  0.44549148  0.03714232     2.06300
Zr1995     Zr  0.53763332  0.57312378  0.05207796     2.10000
Zr1996     Zr  0.43930698  0.47169721  0.05050371     1.78800
O1997       O  0.59617620  0.63796993  0.05271776    -0.93600
O1998       O  0.38665447  0.40501698  0.04836412    -0.41400
O1999       O  0.50249290  0.50598427  0.05533536    -0.78000
O2000       O  0.47876176  0.44320613  0.04801726    -0.96700
O2001       O  0.55388260  0.47962527  0.04174558    -0.90000
O2002       O  0.57853106  0.54611251  0.04953922    -0.92900
C2003       C  0.38667829  0.50261510  0.04170668     1.00900
C2004       C  0.51139649  0.62970070  0.04306729     1.13800
C2005       C  0.46739695  0.47787308  0.02376466     1.04600
O2006       O  0.42843017  0.38450352  0.03561823    -0.95000
O2007       O  0.49830665  0.39248198  0.04140823    -0.90800
O2008       O  0.52844165  0.41108894  0.05074734    -0.83900
C2009       C  0.51214696  0.38592329  0.04636300     1.11200
O2010       O  0.60887502  0.59475847  0.03044266    -0.97000
Zr2011     Zr  0.58885183  0.54699102  0.03880371     1.88900
O2012       O  0.60750277  0.48648936  0.05080262    -0.73600
O2013       O  0.52551661  0.42963505  0.02947159    -0.52900
O2014       O  0.60850715  0.52368480  0.02980781    -0.97600
O2015       O  0.64640906  0.60979863  0.04146588    -0.54800
O2016       O  0.63481799  0.52745786  0.04263165    -0.74200
C2017       C  0.63538361  0.50508219  0.04690176     0.98200
O2018       O  0.52507592  0.44144182  0.06216699    -0.63000
O2019       O  0.50429790  0.58352561  0.06071991    -0.57800
O2020       O  0.57666452  0.51741688  0.06149751    -0.94500
O2021       O  0.57277742  0.57338671  0.06145167    -0.92900
O2022       O  0.41564528  0.49449290  0.05905466    -0.93200
O2023       O  0.41898619  0.43188057  0.05982426    -0.92000
C2024       C  0.58413816  0.55053853  0.06380339     1.17000
H2025       H  0.45888352  0.55153950  0.04842881     0.33000
H2026       H  0.46500681  0.41634657  0.04946756     0.43800
H2027       H  0.60370712  0.56004612  0.05158832     0.37400
H2028       H  0.53190798  0.51568551  0.02965050     0.33800
H2029       H  0.36347031  0.40272175  0.05055617     0.25600
H2030       H  0.50973962  0.40075303  0.02894265     0.31600
H2031       H  0.63673848  0.53266300  0.03044758     0.37500
H2032       H  0.42701037  0.52307020  0.05837422     0.31900
H2033       H  0.52451823  0.60845617  0.06261512     0.30800
H2034       H  0.59441135  0.64828681  0.05679879     0.32500
H2035       H  0.65896063  0.60416841  0.04497545     0.31500
H2036       H  0.44346584  0.43376531  0.06143687     0.35500
H2037       H  0.51593841  0.45538694  0.06492244     0.28200
H2038       H  0.46430968  0.57061859  0.02600574     0.32400
H2039       H  0.63616176  0.60172984  0.02939816     0.35300
H2040       H  0.48543487  0.59016635  0.05881365     0.27900
H2041       H  0.50069774  0.41654595  0.06121821     0.40700
H2042       H  0.43312787  0.37222777  0.03197118     0.30800
H2043       H  0.38049059  0.40519630  0.04394327     0.38400
H2044       H  0.63549462  0.62550155  0.04326970     0.30300
H2045       H  0.54985643  0.43418282  0.03156722     0.30300
H2046       H  0.50866700  0.58196796  0.02520240     0.30600
Zr2047     Zr  0.44359338  0.49947276  0.94836866     2.17500
O2048       O  0.45877566  0.54204982  0.93939076    -0.51800
O2049       O  0.37699194  0.48667078  0.94976077    -0.75000
O2050       O  0.41129453  0.46149726  0.93916575    -0.81700
O2051       O  0.48233852  0.58155369  0.96025063    -0.83500
O2052       O  0.42019390  0.40857322  0.93870029    -0.79100
O2053       O  0.45817650  0.56629866  0.95047423    -0.90700
O2054       O  0.34849355  0.44220267  0.95747991    -0.76700
O2055       O  0.41071506  0.43090220  0.95052288    -0.86200
O2056       O  0.42946425  0.49372034  0.95912465    -0.85900
O2057       O  0.48882432  0.47795447  0.94539858    -0.72600
O2058       O  0.50568604  0.53605602  0.95350999    -0.84800
Zr2059     Zr  0.50324540  0.43844411  0.96389261     2.26400
Zr2060     Zr  0.45605303  0.40931941  0.94794478     2.06300
Zr2061     Zr  0.49130359  0.52863968  0.96427118     2.10000
Zr2062     Zr  0.39627280  0.42491728  0.96119230     1.78800
O2063       O  0.55540039  0.58565825  0.96644045    -0.93600
O2064       O  0.34141440  0.36382271  0.95729429    -0.41400
O2065       O  0.45763019  0.45983086  0.96649084    -0.78000
O2066       O  0.44061001  0.40139208  0.95872626    -0.96700
O2067       O  0.51776700  0.44487033  0.95315507    -0.90000
O2068       O  0.53714697  0.50729143  0.96175794    -0.92900
C2069       C  0.34801015  0.46530644  0.95333855     1.00900
C2070       C  0.47105429  0.58944021  0.95515426     1.13800
C2071       C  0.40635966  0.42987232  0.93658394     1.04600
O2072       O  0.40202058  0.34278779  0.94618601    -0.95000
O2073       O  0.47030819  0.35881177  0.95145262    -0.90800
O2074       O  0.49099485  0.37319116  0.96135894    -0.83900
C2075       C  0.48162713  0.35117912  0.95656721     1.11200
O2076       O  0.56678485  0.56242946  0.94281730    -0.97000
Zr2077     Zr  0.54995654  0.51326485  0.95089678     1.88900
O2078       O  0.57354293  0.45988496  0.96317774    -0.73600
O2079       O  0.49584834  0.40628457  0.93958667    -0.52900
O2080       O  0.57421234  0.49312889  0.94207653    -0.97600
O2081       O  0.60518649  0.57747800  0.95368309    -0.54800
O2082       O  0.60012295  0.50147442  0.95504014    -0.74200
C2083       C  0.60214137  0.48130179  0.95951430     0.98200
O2084       O  0.50978471  0.39753661  0.97177026    -0.63000
O2085       O  0.45901035  0.54749590  0.97206702    -0.57800
O2086       O  0.49651514  0.45494372  0.97461166    -0.94500
O2087       O  0.49826501  0.51356148  0.97486195    -0.92900
O2088       O  0.36880751  0.43797647  0.97035558    -0.93200
O2089       O  0.37575604  0.37338348  0.96893271    -0.92000
C2090       C  0.49622719  0.48340867  0.97751988     1.17000
H2091       H  0.41373297  0.50538060  0.96024900     0.33000
H2092       H  0.42780392  0.37391951  0.95984079     0.43800
H2093       H  0.56087470  0.52107591  0.96418319     0.37400
H2094       H  0.49363588  0.48142719  0.94101529     0.33800
H2095       H  0.31814009  0.36096655  0.95953508     0.25600
H2096       H  0.52067189  0.41150223  0.94159153     0.31600
H2097       H  0.60324139  0.50882907  0.94238422     0.37500
H2098       H  0.39186460  0.45456145  0.97298981     0.31900
H2099       H  0.47298160  0.57660804  0.97203952     0.30800
H2100       H  0.55359406  0.59255126  0.97077198     0.32500
H2101       H  0.62761044  0.58005010  0.95122252     0.31500
H2102       H  0.40063682  0.37770944  0.97080061     0.35500
H2103       H  0.53065848  0.41567845  0.97463493     0.28200
H2104       H  0.43295318  0.53683230  0.93779500     0.32400
H2105       H  0.59142603  0.56633348  0.94092126     0.35300
H2106       H  0.43259869  0.53933945  0.97037222     0.27900
H2107       H  0.48510146  0.38566126  0.97419628     0.40700
H2108       H  0.38429367  0.33728704  0.94975517     0.30800
H2109       H  0.33754823  0.36967454  0.95299414     0.38400
H2110       H  0.61185641  0.57462986  0.95798232     0.30300
H2111       H  0.48271991  0.37807943  0.93845747     0.30300
H2112       H  0.46884891  0.53105451  0.93623805     0.30600
Zr2113     Zr  0.05233314  0.50164212  0.03602962     2.17500
O2114       O  0.09099642  0.49515098  0.02778626    -0.51800
O2115       O  0.10163648  0.57191177  0.03689786    -0.75000
O2116       O  0.03698451  0.51760640  0.02587177    -0.81700
O2117       O  0.09797221  0.45956345  0.04716774    -0.83500
O2118       O  0.97692186  0.51238094  0.02620642    -0.79100
O2119       O  0.10706597  0.49140721  0.03804689    -0.90700
O2120       O  0.08426260  0.59635809  0.04502357    -0.76700
O2121       O  0.01855226  0.53507864  0.03903527    -0.86200
O2122       O  0.06188393  0.51111568  0.04687938    -0.85900
O2123       O  0.98487417  0.45642253  0.03332758    -0.72600
O2124       O  0.02556271  0.43668179  0.04044092    -0.84800
Zr2125     Zr  0.93361632  0.43779284  0.05193003     2.26400
Zr2126     Zr  0.95125350  0.49041115  0.03649940     2.06300
Zr2127     Zr  0.03490438  0.44689103  0.05133727     2.10000
Zr2128     Zr  0.02718114  0.54355176  0.04990958     1.78800
O2129       O  0.03918040  0.38726249  0.05215019    -0.93600
O2130       O  0.00861803  0.59364948  0.04834384    -0.41400
O2131       O  0.00121198  0.48032783  0.05471981    -0.78000
O2132       O  0.95961216  0.50172113  0.04738682    -0.96700
O2133       O  0.92357942  0.42691391  0.04113264    -0.90000
O2134       O  0.96721918  0.40401287  0.04888927    -0.92900
C2135       C  0.10666335  0.60027032  0.04047004     1.00900
C2136       C  0.11824140  0.47662876  0.04231775     1.13800
C2137       C  0.00802262  0.51871253  0.02330338     1.04600
O2138       O  0.95313713  0.55308772  0.03544377    -0.95000
O2139       O  0.88852185  0.47760082  0.04056362    -0.90800
O2140       O  0.87768965  0.44708038  0.04985809    -0.83900
C2141       C  0.86776028  0.46214103  0.04542336     1.11200
O2142       O  0.98172673  0.37082981  0.02969435    -0.97000
Zr2143     Zr  0.95702298  0.39323428  0.03817222     1.88900
O2144       O  0.87816870  0.37258926  0.05044350    -0.73600
O2145       O  0.89946109  0.45717906  0.02883812    -0.52900
O2146       O  0.91344685  0.37287778  0.02925189    -0.97600
O2147       O  0.96467310  0.33722190  0.04098382    -0.54800
O2148       O  0.89185648  0.34594839  0.04217660    -0.74200
C2149       C  0.86902755  0.34494388  0.04651880     0.98200
O2150       O  0.91297541  0.45643066  0.06133515    -0.63000
O2151       O  0.08224415  0.48071041  0.05955977    -0.57800
O2152       O  0.94043529  0.40459282  0.06091856    -0.94500
O2153       O  0.00188611  0.41254516  0.06081718    -0.92900
O2154       O  0.07949546  0.57250956  0.05755465    -0.93200
O2155       O  0.00520253  0.55932190  0.05943459    -0.92000
C2156       C  0.96777366  0.39970399  0.06328015     1.17000
H2157       H  0.08948204  0.52701819  0.04787301     0.33000
H2158       H  0.94523642  0.51423025  0.04881987     0.43800
H2159       H  0.95693575  0.37902437  0.05096751     0.37400
H2160       H  0.98205379  0.45121550  0.02895402     0.33800
H2161       H  0.03050978  0.61792018  0.05014705     0.25600
H2162       H  0.89967008  0.47845562  0.02635361     0.31600
H2163       H  0.89424823  0.34470873  0.02995742     0.37500
H2164       H  0.08036208  0.54988106  0.05938957     0.31900
H2165       H  0.06703452  0.48479164  0.06282728     0.30800
H2166       H  0.06117241  0.39405561  0.05504472     0.32500
H2167       H  0.94553636  0.32356649  0.04434201     0.31500
H2168       H  0.98827592  0.53356389  0.06142915     0.35500
H2169       H  0.93453632  0.46340711  0.06432803     0.28200
H2170       H  0.10686201  0.52188164  0.02602823     0.32400
H2171       H  0.96178263  0.34282386  0.02903574     0.35300
H2172       H  0.08778856  0.46059820  0.06127662     0.27900
H2173       H  0.91499492  0.48198486  0.06033654     0.40700
H2174       H  0.93653538  0.54968599  0.03179925     0.30800
H2175       H  0.01107052  0.59855928  0.04384610     0.38400
H2176       H  0.99072547  0.34894996  0.04300284     0.30300
H2177       H  0.90930904  0.44419041  0.02601526     0.30300
H2178       H  0.07211828  0.47926441  0.02451143     0.30600
Zr2179     Zr  0.05218673  0.53392698  0.94807292     2.17500
O2180       O  0.07851312  0.51859477  0.93896571    -0.51800
O2181       O  0.10757213  0.59949131  0.94946132    -0.75000
O2182       O  0.04458435  0.56488574  0.93885306    -0.81700
O2183       O  0.09518397  0.49306323  0.95952147    -0.83500
O2184       O  0.98431103  0.55964701  0.93899754    -0.79100
O2185       O  0.10394842  0.51810663  0.94982653    -0.90700
O2186       O  0.09196661  0.63036838  0.95686189    -0.76700
O2187       O  0.01824226  0.56824766  0.95058507    -0.86200
O2188       O  0.06262135  0.54766996  0.95882157    -0.85900
O2189       O  0.98460108  0.49044141  0.94538023    -0.72600
O2190       O  0.02630897  0.47139197  0.95308355    -0.84800
Zr2191     Zr  0.93347740  0.47478768  0.96397620     2.26400
Zr2192     Zr  0.95032283  0.52427834  0.94830725     2.06300
Zr2193     Zr  0.03489142  0.48541248  0.96387667     2.10000
Zr2194     Zr  0.02863152  0.58198327  0.96125307     1.78800
O2195       O  0.02274742  0.41965895  0.96630935    -0.93600
O2196       O  0.01671152  0.63487417  0.95819261    -0.41400
O2197       O  0.00100275  0.51979642  0.96627612    -0.78000
O2198       O  0.95976289  0.53854234  0.95913301    -0.96700
O2199       O  0.92318975  0.46137647  0.95322787    -0.90000
O2200       O  0.96755040  0.44055047  0.96149994    -0.92900
C2201       C  0.11546881  0.62944793  0.95281653     1.00900
C2202       C  0.11416191  0.50459592  0.95442929     1.13800
C2203       C  0.01802748  0.57100475  0.93650494     1.04600
O2204       O  0.93917074  0.57963286  0.94703103    -0.95000
O2205       O  0.88502429  0.50861741  0.95189694    -0.90800
O2206       O  0.87901712  0.48532989  0.96162059    -0.83900
C2207       C  0.86593506  0.49548613  0.95697862     1.11200
O2208       O  0.98231403  0.41295204  0.94127137    -0.97000
Zr2209     Zr  0.95857462  0.42869140  0.95063767     1.88900
O2210       O  0.88548752  0.40417253  0.96355928    -0.73600
O2211       O  0.90911521  0.48907360  0.93952062    -0.52900
O2212       O  0.90641649  0.40329497  0.94292987    -0.97600
O2213       O  0.97307327  0.37566565  0.95217279    -0.54800
O2214       O  0.90237825  0.37665007  0.95579842    -0.74200
C2215       C  0.88028415  0.37461220  0.96028193     0.98200
O2216       O  0.89650079  0.47276686  0.97315101    -0.63000
O2217       O  0.08794076  0.51022898  0.97143923    -0.57800
O2218       O  0.95406583  0.47580098  0.97461007    -0.94500
O2219       O  0.01670018  0.48692288  0.97453257    -0.92900
O2220       O  0.07304958  0.60452148  0.97006492    -0.93200
O2221       O  0.00616403  0.60485953  0.96994865    -0.92000
C2222       C  0.98587990  0.48242408  0.97732509     1.17000
H2223       H  0.09020818  0.56293427  0.95985804     0.33000
H2224       H  0.94536230  0.55128372  0.96045064     0.43800
H2225       H  0.95792539  0.41670665  0.96388103     0.37400
H2226       H  0.98235214  0.48593436  0.94098504     0.33800
H2227       H  0.03761870  0.65861676  0.96027029     0.25600
H2228       H  0.88568389  0.46626609  0.94133753     0.31600
H2229       H  0.89383784  0.37431473  0.94323955     0.37500
H2230       H  0.07562623  0.58153479  0.97125144     0.31900
H2231       H  0.09800722  0.49157667  0.97137667     0.30800
H2232       H  0.03923993  0.41507605  0.96334834     0.32500
H2233       H  0.94944200  0.35170915  0.95065542     0.31500
H2234       H  0.98784338  0.58056226  0.97220700     0.35500
H2235       H  0.89349987  0.49635672  0.97297594     0.28200
H2236       H  0.10037041  0.54422099  0.93753723     0.32400
H2237       H  0.96203569  0.38581407  0.94014420     0.35300
H2238       H  0.10932080  0.53496176  0.96966560     0.27900
H2239       H  0.86970292  0.45008567  0.97255996     0.40700
H2240       H  0.94427714  0.59214887  0.95114598     0.30800
H2241       H  0.02374925  0.63925970  0.95376646     0.38400
H2242       H  0.97246286  0.37205047  0.95669525     0.30300
H2243       H  0.89934733  0.50639834  0.93798103     0.30300
H2244       H  0.05803156  0.51038725  0.93573960     0.30600
Zr2245     Zr  0.44062186  0.92548047  0.03727999     2.17500
O2246       O  0.39019194  0.88254974  0.02994874    -0.51800
O2247       O  0.46143519  0.87609882  0.03784904    -0.75000
O2248       O  0.46477528  0.93857993  0.02663552    -0.81700
O2249       O  0.35772408  0.88551131  0.04936169    -0.83500
O2250       O  0.52224743  0.99677583  0.02639042    -0.79100
O2251       O  0.37407428  0.87513325  0.03977661    -0.90700
O2252       O  0.50898252  0.89520535  0.04516011    -0.76700
O2253       O  0.50894165  0.95729982  0.03962817    -0.86200
O2254       O  0.44491298  0.91749591  0.04809539    -0.85900
O2255       O  0.46458448  0.99279618  0.03427573    -0.72600
O2256       O  0.40694405  0.95535643  0.04221338    -0.84800
Zr2257     Zr  0.50665727  0.04821287  0.05241556     2.26400
Zr2258     Zr  0.53335689  0.02436773  0.03672247     2.06300
Zr2259     Zr  0.41249913  0.94794230  0.05306171     2.10000
Zr2260     Zr  0.51305836  0.95089994  0.05050279     1.78800
O2261       O  0.34937843  0.94295122  0.05531389    -0.93600
O2262       O  0.58130168  0.96720181  0.04935459    -0.41400
O2263       O  0.48098330  0.98122482  0.05565049    -0.78000
O2264       O  0.54027447  0.01822815  0.04759611    -0.96700
O2265       O  0.50152146  0.05548538  0.04163858    -0.90000
O2266       O  0.43808386  0.01522198  0.05015420    -0.92900
C2267       C  0.48723683  0.87193170  0.04090315     1.00900
C2268       C  0.35028548  0.86546152  0.04434615     1.13800
C2269       C  0.49428844  0.96632212  0.02375554     1.04600
O2270       O  0.58904828  0.01533808  0.03437366    -0.95000
O2271       O  0.58825967  0.08577531  0.04037880    -0.90800
O2272       O  0.57162801  0.10154060  0.04954094    -0.83900
C2273       C  0.59562394  0.10860215  0.04504131     1.11200
O2274       O  0.38249045  0.99406835  0.03154102    -0.97000
Zr2275     Zr  0.43319563  0.02319728  0.03945957     1.88900
O2276       O  0.49632042  0.10375210  0.05106875    -0.73600
O2277       O  0.55272112  0.07695087  0.02918791    -0.52900
O2278       O  0.45443464  0.06518219  0.03035267    -0.97600
O2279       O  0.37216607  0.02009954  0.04266153    -0.54800
O2280       O  0.45324175  0.08907422  0.04318141    -0.74200
C2281       C  0.47597765  0.11225436  0.04740091     0.98200
O2282       O  0.55069254  0.07262293  0.06129573    -0.63000
O2283       O  0.40722457  0.90232180  0.06111724    -0.57800
O2284       O  0.47168059  0.04489772  0.06184637    -0.94500
O2285       O  0.41664990  0.98466160  0.06243264    -0.92900
O2286       O  0.48481281  0.89726163  0.05795167    -0.93200
O2287       O  0.55154275  0.96956693  0.05998044    -0.92000
C2288       C  0.44001224  0.01934545  0.06457023     1.17000
H2289       H  0.43262003  0.88995841  0.04916184     0.33000
H2290       H  0.56767482  0.03184586  0.04876751     0.43800
H2291       H  0.42495691  0.02677250  0.05235660     0.37400
H2292       H  0.46010554  0.99536587  0.02997371     0.33800
H2293       H  0.58134663  0.94263201  0.05038161     0.25600
H2294       H  0.57282668  0.07570471  0.02659209     0.31600
H2295       H  0.48110602  0.08689246  0.03138870     0.37500
H2296       H  0.50439290  0.88846293  0.05831040     0.31900
H2297       H  0.42703714  0.91893429  0.06423538     0.30800
H2298       H  0.33773399  0.92287241  0.05860828     0.32500
H2299       H  0.37925547  0.03814171  0.04622527     0.31500
H2300       H  0.53765871  0.97846851  0.06278918     0.35500
H2301       H  0.53855603  0.05146765  0.06442076     0.28200
H2302       H  0.40260727  0.87154017  0.02723782     0.32400
H2303       H  0.37670355  0.01500624  0.03034411     0.35300
H2304       H  0.38157054  0.89406079  0.06311228     0.27900
H2305       H  0.57460390  0.07205304  0.06000599     0.40700
H2306       H  0.60930130  0.03134034  0.03747445     0.30800
H2307       H  0.58616890  0.97036805  0.04485867     0.38400
H2308       H  0.35631084  0.99351242  0.04446513     0.30300
H2309       H  0.52961757  0.06809580  0.02645055     0.30300
H2310       H  0.38545388  0.90026883  0.02729131     0.30600
Zr2311     Zr  0.48227147  0.92774265  0.94826446     2.17500
O2312       O  0.44381398  0.90609526  0.93878376    -0.51800
O2313       O  0.49069215  0.87146694  0.94974724    -0.75000
O2314       O  0.52376622  0.93551783  0.93936853    -0.81700
O2315       O  0.39666177  0.88407489  0.95938005    -0.83500
O2316       O  0.57725508  0.99712673  0.93943102    -0.79100
O2317       O  0.41449509  0.87469939  0.94983939    -0.90700
O2318       O  0.53315081  0.88586143  0.95774695    -0.76700
O2319       O  0.54986315  0.96112500  0.95120609    -0.86200
O2320       O  0.48283876  0.91717751  0.95908927    -0.85900
O2321       O  0.50849203  0.99571813  0.94559031    -0.72600
O2322       O  0.44513244  0.95416345  0.95294864    -0.84800
Zr2323     Zr  0.53981337  0.04671571  0.96425791     2.26400
Zr2324     Zr  0.57577992  0.02935118  0.94894533     2.06300
Zr2325     Zr  0.44796368  0.94561888  0.96380756     2.10000
Zr2326     Zr  0.55040572  0.95031372  0.96191716     1.78800
O2327       O  0.39096574  0.95369715  0.96539673    -0.93600
O2328       O  0.61283392  0.95557419  0.95900848    -0.41400
O2329       O  0.51559235  0.97889244  0.96660878    -0.78000
O2330       O  0.57766359  0.01949103  0.95981791    -0.96700
O2331       O  0.53920392  0.05687133  0.95344676    -0.90000
O2332       O  0.47207945  0.01332233  0.96135153    -0.92900
C2333       C  0.51054845  0.86288004  0.95348798     1.00900
C2334       C  0.38989880  0.86437945  0.95434709     1.13800
C2335       C  0.55585694  0.96300715  0.93699330     1.04600
O2336       O  0.63970797  0.03360436  0.94822142    -0.95000
O2337       O  0.62694043  0.09230668  0.95303482    -0.90800
O2338       O  0.60709537  0.09885556  0.96253079    -0.83900
C2339       C  0.63242461  0.11087170  0.95815955     1.11200
O2340       O  0.43120414  0.99438745  0.94123778    -0.97000
Zr2341     Zr  0.47180678  0.02191854  0.95042281     1.88900
O2342       O  0.51969061  0.09651851  0.96325468    -0.73600
O2343       O  0.58950571  0.07685124  0.94073050    -0.52900
O2344       O  0.49521036  0.06835452  0.94186372    -0.97600
O2345       O  0.40552395  0.01062006  0.95216280    -0.54800
O2346       O  0.48195225  0.08265123  0.95469322    -0.74200
C2347       C  0.49972885  0.10419765  0.95935774     0.98200
O2348       O  0.56915561  0.08501222  0.97358314    -0.63000
O2349       O  0.42318882  0.89552945  0.97184386    -0.57800
O2350       O  0.51959707  0.02528367  0.97486758    -0.94500
O2351       O  0.46340401  0.96620883  0.97452568    -0.92900
O2352       O  0.52770278  0.90789839  0.97096272    -0.93200
O2353       O  0.59657416  0.97366635  0.97050429    -0.92000
C2354       C  0.49122233  0.99507539  0.97749357     1.17000
H2355       H  0.46995840  0.88959795  0.96014043     0.33000
H2356       H  0.60443639  0.03305486  0.96130905     0.43800
H2357       H  0.45759080  0.02345666  0.96354298     0.37400
H2358       H  0.50737326  0.99818159  0.94117555     0.33800
H2359       H  0.61254887  0.93275508  0.96101421     0.25600
H2360       H  0.61220683  0.07841017  0.93848297     0.31600
H2361       H  0.51739409  0.09279689  0.94356631     0.37500
H2362       H  0.51079048  0.91582999  0.97320749     0.31900
H2363       H  0.39479798  0.88662778  0.97218161     0.30800
H2364       H  0.39451197  0.96486772  0.96959601     0.32500
H2365       H  0.40441439  0.03174823  0.94983292     0.31500
H2366       H  0.58814746  0.98893193  0.97309259     0.35500
H2367       H  0.59490909  0.08641884  0.97409286     0.28200
H2368       H  0.45029971  0.88708319  0.93688330     0.32400
H2369       H  0.42275531  0.01331387  0.93999386     0.35300
H2370       H  0.42439359  0.87292260  0.97006797     0.27900
H2371       H  0.57534627  0.11214965  0.97260864     0.40700
H2372       H  0.65352728  0.05281805  0.94487595     0.30800
H2373       H  0.61021726  0.94923145  0.95455416     0.38400
H2374       H  0.40504350  0.01748342  0.95653979     0.30300
H2375       H  0.56713629  0.06343882  0.93783604     0.30300
H2376       H  0.45578917  0.92929027  0.93602152     0.30600
C2377       C  0.49441645  0.96548716  0.01690794    -0.20300
C2378       C  0.45912621  0.95201600  0.01352419     0.35900
C2379       C  0.46072014  0.95632885  0.00709242    -0.26300
C2380       C  0.49665543  0.97433007  0.00393130     0.02400
C2381       C  0.53195666  0.98769926  0.00726794     0.27200
C2382       C  0.53047062  0.98317037  0.01372360    -0.25400
N2383       N  0.42189485  0.93591424  0.01663417    -0.82800
H2384       H  0.43373447  0.94683750  0.00453051     0.13000
C2385       C  0.49632240  0.97967937  0.99714604     0.02300
N2386       N  0.56909044  0.00610631  0.00409897    -0.81300
H2387       H  0.55762042  0.99405150  0.01629710     0.17800
C2388       C  0.51586656  0.01770558  0.99462420    -0.26200
C2389       C  0.51341488  0.02399316  0.98828022     0.35800
C2390       C  0.49197040  0.99131502  0.98433029    -0.20200
C2391       C  0.47242456  0.95334304  0.98691114    -0.25500
C2392       C  0.47411971  0.94722852  0.99324967     0.27200
H2393       H  0.53204467  0.04267040  0.99765905     0.13000
N2394       N  0.53170047  0.06339841  0.98589700    -0.82700
H2395       H  0.45613729  0.92799737  0.98395696     0.17800
N2396       N  0.45330096  0.90808967  0.99575709    -0.81300
H2397       H  0.54621999  0.08392391  0.98940484     0.33500
H2398       H  0.50928737  0.06821316  0.98431005     0.37900
H2399       H  0.43797149  0.88747531  0.99229638     0.33400
H2400       H  0.47416050  0.90150973  0.99751235     0.30100
H2401       H  0.59224274  0.01459133  0.00722472     0.33400
H2402       H  0.56951030  0.98502639  0.00120157     0.30100
H2403       H  0.42218611  0.95853206  0.01922612     0.38000
H2404       H  0.39888631  0.92691342  0.01346568     0.33500
C2405       C  0.84564343  0.33554898  0.96146353    -0.20300
C2406       C  0.84807062  0.30100971  0.96088096     0.35900
C2407       C  0.81358589  0.26427497  0.96062422    -0.26300
C2408       C  0.77654505  0.26133296  0.96095524     0.02400
C2409       C  0.77404088  0.29562768  0.96195354     0.27200
C2410       C  0.80873591  0.33242166  0.96225832    -0.25400
N2411       N  0.88557286  0.30319502  0.96053263    -0.82800
H2412       H  0.81571735  0.23794743  0.96006690     0.13000
C2413       C  0.74067796  0.22219795  0.96025596     0.02300
N2414       N  0.73630196  0.29310699  0.96242102    -0.81300
H2415       H  0.80681988  0.35889602  0.96271482     0.17800
C2416       C  0.71331650  0.20765485  0.96505458    -0.26200
C2417       C  0.67835502  0.17152887  0.96453473     0.35800
C2418       C  0.67025134  0.14868807  0.95908295    -0.20200
C2419       C  0.69861814  0.16295959  0.95434778    -0.25500
C2420       C  0.73343870  0.19960772  0.95484655     0.27200
H2421       H  0.71899824  0.22471398  0.96924678     0.13000
N2422       N  0.65128287  0.15866972  0.96958216    -0.82700
H2423       H  0.69334862  0.14594575  0.95016671     0.17800
N2424       N  0.76103900  0.21437762  0.94982812    -0.81300
H2425       H  0.64325895  0.18000517  0.97038788     0.33500
H2426       H  0.66578249  0.15685634  0.97350658     0.37900
H2427       H  0.75146869  0.19417108  0.94619406     0.33400
H2428       H  0.76162449  0.23964080  0.94814619     0.30100
H2429       H  0.73961492  0.32083712  0.96327390     0.33400
H2430       H  0.72243183  0.28394489  0.95813729     0.30100
H2431       H  0.88744375  0.28673485  0.96417376     0.38000
H2432       H  0.88670786  0.29002011  0.95640692     0.33500
C2433       C  0.15539736  0.66419507  0.95217839    -0.20300
C2434       C  0.16261761  0.70308840  0.95275694     0.35900
C2435       C  0.20162799  0.73466396  0.95253629    -0.26300
C2436       C  0.23340762  0.72802908  0.95182639     0.02400
C2437       C  0.22623007  0.68924018  0.95123192     0.27200
C2438       C  0.18727802  0.65781236  0.95128659    -0.25400
N2439       N  0.13045785  0.71034308  0.95360170    -0.82800
H2440       H  0.20743310  0.76456470  0.95306237     0.13000
C2441       C  0.27410971  0.76172411  0.95230823     0.02300
N2442       N  0.25854085  0.68178549  0.95091853    -0.81300
H2443       H  0.18189345  0.62796797  0.95091644     0.17800
C2444       C  0.29045482  0.77416394  0.95817192    -0.26200
C2445       C  0.32841670  0.80669220  0.95894622     0.35800
C2446       C  0.35067928  0.82773737  0.95370825    -0.20200
C2447       C  0.33432311  0.81447281  0.94780699    -0.25500
C2448       C  0.29617399  0.78179010  0.94706038     0.27200
H2449       H  0.27334571  0.75832626  0.96217736     0.13000
N2450       N  0.34441988  0.81810810  0.96504760    -0.82700
H2451       H  0.35086895  0.83031523  0.94376596     0.17800
N2452       N  0.27921821  0.76980714  0.94102023    -0.81300
H2453       H  0.32395399  0.80029943  0.96837381     0.33500
H2454       H  0.36812177  0.81308128  0.96538674     0.37900
H2455       H  0.29889391  0.78815084  0.93765267     0.33400
H2456       H  0.27476635  0.74165195  0.94018444     0.30100
H2457       H  0.24821432  0.65154538  0.95070808     0.33400
H2458       H  0.27364308  0.69372033  0.94680399     0.30100
H2459       H  0.11310385  0.70079277  0.94962424     0.38000
H2460       H  0.14081925  0.74052000  0.95398653     0.33500
C2461       C  0.82892562  0.31010722  0.04691127    -0.20300
C2462       C  0.79618253  0.31392227  0.04866202     0.35900
C2463       C  0.75838721  0.28057935  0.04866687    -0.26300
C2464       C  0.75251259  0.24368269  0.04692157     0.02400
C2465       C  0.78505025  0.23953129  0.04531546     0.27200
C2466       C  0.82293997  0.27284968  0.04527993    -0.25400
N2467       N  0.80112911  0.35178351  0.05021464    -0.82800
H2468       H  0.73315441  0.28353912  0.04984997     0.13000
C2469       C  0.71188368  0.20995664  0.04649934     0.02300
N2470       N  0.77932229  0.20146422  0.04371078    -0.81300
H2471       H  0.84791280  0.26973518  0.04398310     0.17800
C2472       C  0.69733102  0.19285721  0.04072799    -0.26200
C2473       C  0.65903527  0.16082573  0.04007006     0.35800
C2474       C  0.63497164  0.14483851  0.04536040    -0.20200
C2475       C  0.64945252  0.16288928  0.05112121    -0.25500
C2476       C  0.68762932  0.19528941  0.05173897     0.27200
H2477       H  0.71592367  0.20494811  0.03670093     0.13000
N2478       N  0.64453084  0.14494437  0.03404024    -0.82700
H2479       H  0.63133992  0.15112058  0.05519958     0.17800
N2480       N  0.70213496  0.21296503  0.05767345    -0.81300
H2481       H  0.66619379  0.15964989  0.03069153     0.33500
H2482       H  0.62166829  0.15042428  0.03301317     0.37900
H2483       H  0.68061991  0.19874150  0.06105942     0.33400
H2484       H  0.72555896  0.20861063  0.05882398     0.30100
H2485       H  0.80620114  0.20334115  0.04265465     0.33400
H2486       H  0.76835668  0.18351949  0.04760976     0.30100
H2487       H  0.81042678  0.36912220  0.04623507     0.38000
H2488       H  0.77425100  0.34931009  0.05146708     0.33500
C2489       C  0.31194163  0.82843402  0.04362509    -0.20300
C2490       C  0.29447594  0.80091582  0.04846856     0.35900
C2491       C  0.26074315  0.76423727  0.04725722    -0.26300
C2492       C  0.24391818  0.75478785  0.04135138     0.02400
C2493       C  0.26026027  0.78266730  0.03658642     0.27200
C2494       C  0.29428186  0.81900469  0.03775051    -0.25400
N2495       N  0.31196855  0.80938675  0.05450249    -0.82800
H2496       H  0.24759242  0.74273581  0.05091999     0.13000
C2497       C  0.20876129  0.71569432  0.04026043     0.02300
N2498       N  0.24201807  0.77405173  0.03060592    -0.81300
H2499       H  0.30727669  0.84008127  0.03402985     0.17800
C2500       C  0.17143466  0.71117002  0.04114720    -0.26200
C2501       C  0.13760186  0.67392793  0.04079927     0.35800
C2502       C  0.14089015  0.64036232  0.03952158    -0.20200
C2503       C  0.17814087  0.64540143  0.03815334    -0.25500
C2504       C  0.21226259  0.68283243  0.03857257     0.27200
H2505       H  0.16862818  0.73653276  0.04230472     0.13000
N2506       N  0.09982375  0.67018557  0.04183397    -0.82700
H2507       H  0.18088984  0.61990795  0.03711114     0.17800
N2508       N  0.25052778  0.68738076  0.03756856    -0.81300
H2509       H  0.09590349  0.68769641  0.03860108     0.33500
H2510       H  0.09989777  0.68121111  0.04622531     0.37900
H2511       H  0.24809936  0.66033202  0.03644960     0.33400
H2512       H  0.26290065  0.70558241  0.03373159     0.30100
H2513       H  0.25737091  0.79789894  0.02762673     0.33400
H2514       H  0.24409169  0.75059597  0.02874140     0.30100
H2515       H  0.30807326  0.83167514  0.05640750     0.38000
H2516       H  0.29699416  0.78501142  0.05739877     0.33500
C2517       C  0.00838923  0.52354517  0.01646176    -0.20300
C2518       C  0.04019000  0.52816501  0.01276099     0.35900
C2519       C  0.03536344  0.52331263  0.00634659    -0.26300
C2520       C  0.00018878  0.51548200  0.00346889     0.02400
C2521       C  0.96950751  0.51384795  0.00706812     0.27200
C2522       C  0.97387152  0.51781836  0.01350709    -0.25400
N2523       N  0.07700473  0.53681216  0.01549845    -0.82800
H2524       H  0.05899097  0.52470888  0.00357395     0.13000
C2525       C  0.99573867  0.50769706  0.99671776     0.02300
N2526       N  0.93374109  0.50733168  0.00418298    -0.81300
H2527       H  0.94940862  0.51485513  0.01623107     0.17800
C2528       C  0.96411687  0.47227869  0.99450572    -0.26200
C2529       C  0.96009353  0.46299614  0.98818243     0.35800
C2530       C  0.98877976  0.48935439  0.98402950    -0.20200
C2531       C  0.02051797  0.52451194  0.98623887    -0.25500
C2532       C  0.02404003  0.53422775  0.99252022     0.27200
H2533       H  0.94282157  0.45154827  0.99774131     0.13000
N2534       N  0.92807520  0.42627242  0.98601563    -0.82700
H2535       H  0.04217175  0.54497652  0.98301111     0.17800
N2536       N  0.05608609  0.57104891  0.99465288    -0.81300
H2537       H  0.91098936  0.40926845  0.98971851     0.33500
H2538       H  0.90972097  0.43254122  0.98334614     0.37900
H2539       H  0.07439993  0.58709379  0.99098706     0.33400
H2540       H  0.04410392  0.58763446  0.99639442     0.30100
H2541       H  0.91390760  0.50652314  0.00747871     0.33400
H2542       H  0.94079580  0.53148299  0.00133974     0.30100
H2543       H  0.08941123  0.56490657  0.01744006     0.38000
H2544       H  0.09678387  0.53815341  0.01214658     0.33500
C2545       C  0.82616948  0.49161841  0.95756522    -0.20300
C2546       C  0.79887222  0.46756466  0.96215926     0.35900
C2547       C  0.76226032  0.46569772  0.96262655    -0.26300
C2548       C  0.75136914  0.48603871  0.95850930     0.02400
C2549       C  0.77785848  0.50909725  0.95381887     0.27200
C2550       C  0.81505687  0.51203265  0.95344583    -0.25400
N2551       N  0.80789611  0.44449764  0.96628641    -0.82800
H2552       H  0.74193193  0.44810899  0.96623160     0.13000
C2553       C  0.71256846  0.48378156  0.95927233     0.02300
N2554       N  0.76670363  0.52916120  0.94941643    -0.81300
H2555       H  0.83541935  0.53035281  0.94989948     0.17800
C2556       C  0.71151678  0.51876085  0.96002543    -0.26200
C2557       C  0.67562566  0.51836199  0.96050525     0.35800
C2558       C  0.64000512  0.48222598  0.96027118    -0.20200
C2559       C  0.64092753  0.44700846  0.95987003    -0.25500
C2560       C  0.67688690  0.44739126  0.95929826     0.27200
H2561       H  0.73889317  0.54656245  0.96017572     0.13000
N2562       N  0.67508385  0.55452900  0.96118088    -0.82700
H2563       H  0.61346129  0.41930734  0.95965046     0.17800
N2564       N  0.67722145  0.41116149  0.95852391    -0.81300
H2565       H  0.70373282  0.57853141  0.96126864     0.33500
H2566       H  0.66266034  0.55379967  0.96547769     0.37900
H2567       H  0.64858826  0.38713765  0.95864662     0.33400
H2568       H  0.68824810  0.41148625  0.95412325     0.30100
H2569       H  0.78952451  0.54505062  0.94628950     0.33400
H2570       H  0.74311420  0.50773383  0.94686019     0.30100
H2571       H  0.80956695  0.42310249  0.96364447     0.38000
H2572       H  0.78515087  0.42933845  0.96945714     0.33500
C2573       C  0.31265325  0.46951069  0.95285243    -0.20300
C2574       C  0.27476284  0.43895809  0.95454620     0.35900
C2575       C  0.24289229  0.44583809  0.95436948    -0.26300
C2576       C  0.24831202  0.48257338  0.95261706     0.02400
C2577       C  0.28588552  0.51302980  0.95093617     0.27200
C2578       C  0.31760127  0.50605265  0.95099263    -0.25400
N2579       N  0.26878339  0.40129816  0.95647540    -0.82800
H2580       H  0.21379573  0.42273519  0.95569931     0.13000
C2581       C  0.21471745  0.48945572  0.95289758     0.02300
N2582       N  0.29185940  0.55127416  0.94939160    -0.81300
H2583       H  0.34664148  0.52981434  0.94979238     0.17800
C2584       C  0.20828471  0.50454059  0.95833718    -0.26200
C2585       C  0.17629777  0.51094252  0.95886234     0.35800
C2586       C  0.14998507  0.50145679  0.95385845    -0.20200
C2587       C  0.15709685  0.48721957  0.94835473    -0.25500
C2588       C  0.18935621  0.48111368  0.94782747     0.27200
H2589       H  0.22836158  0.51133847  0.96217635     0.13000
N2590       N  0.17071534  0.52750342  0.96442006    -0.82700
H2591       H  0.13690670  0.47994422  0.94452139     0.17800
N2592       N  0.19608376  0.46577721  0.94222807    -0.81300
H2593       H  0.19254941  0.53264254  0.96765195     0.33500
H2594       H  0.17416603  0.55497531  0.96329866     0.37900
H2595       H  0.17436516  0.46060288  0.93897243     0.33400
H2596       H  0.22273753  0.48747242  0.94036552     0.30100
H2597       H  0.32150836  0.57076348  0.94842632     0.33400
H2598       H  0.27631812  0.54851392  0.94533452     0.30100
H2599       H  0.27473688  0.38856439  0.95269598     0.38000
H2600       H  0.23935026  0.38246544  0.95765923     0.33500
C2601       C  0.48415501  0.31467872  0.95710082    -0.20300
C2602       C  0.48691322  0.29446983  0.95188468     0.35900
C2603       C  0.48990574  0.26054182  0.95274249    -0.26300
C2604       C  0.49023810  0.24636347  0.95866671     0.02400
C2605       C  0.48733230  0.26617941  0.96385911     0.27200
C2606       C  0.48466731  0.30023951  0.96303167    -0.25400
N2607       N  0.48711034  0.30847838  0.94575094    -0.82800
H2608       H  0.49208319  0.24499470  0.94876808     0.13000
C2609       C  0.49158334  0.20949109  0.95933689     0.02300
N2610       N  0.48628886  0.25113416  0.96994343    -0.81300
H2611       H  0.48229404  0.31517757  0.96706770     0.17800
C2612       C  0.52358858  0.20985343  0.96230287    -0.26200
C2613       C  0.52642462  0.17547706  0.96270147     0.35800
C2614       C  0.49639415  0.14011308  0.96007515    -0.20200
C2615       C  0.46357375  0.13981110  0.95738722    -0.25500
C2616       C  0.46099056  0.17402974  0.95695721     0.27200
H2617       H  0.54687808  0.23729560  0.96416463     0.13000
N2618       N  0.56046441  0.17701198  0.96546626    -0.82700
H2619       H  0.44004132  0.11277098  0.95545895     0.17800
N2620       N  0.42766440  0.17310596  0.95402104    -0.81300
H2621       H  0.58079240  0.20578652  0.96679051     0.33500
H2622       H  0.55126866  0.16054080  0.96953060     0.37900
H2623       H  0.40794891  0.14480601  0.95242373     0.33400
H2624       H  0.41274202  0.17983243  0.95736418     0.30100
H2625       H  0.48396625  0.26910643  0.97327845     0.33400
H2626       H  0.46069735  0.22367462  0.97027666     0.30100
H2627       H  0.51305909  0.33547044  0.94524365     0.38000
H2628       H  0.48818351  0.28955902  0.94246068     0.33500
C2629       C  0.50506494  0.82285092  0.95307652    -0.20300
C2630       C  0.53623121  0.81550376  0.95420035     0.35900
C2631       C  0.52860561  0.77648921  0.95427822    -0.26300
C2632       C  0.49052572  0.74489595  0.95328156     0.02400
C2633       C  0.45950050  0.75214949  0.95204483     0.27200
C2634       C  0.46715913  0.79113652  0.95189172    -0.25400
N2635       N  0.57540522  0.84762166  0.95523934    -0.82800
H2636       H  0.55231269  0.77056175  0.95518600     0.13000
C2637       C  0.48370323  0.70431521  0.95358111     0.02300
N2638       N  0.42032831  0.71988279  0.95105772    -0.81300
H2639       H  0.44315477  0.79672219  0.95104674     0.17800
C2640       C  0.46570010  0.68131920  0.95881259    -0.26200
C2641       C  0.46057381  0.64332557  0.95937701     0.35800
C2642       C  0.47381864  0.62828823  0.95460895    -0.20200
C2643       C  0.49092739  0.65104370  0.94930970    -0.25500
C2644       C  0.49609679  0.68903532  0.94875892     0.27200
H2645       H  0.45602886  0.69326409  0.96248093     0.13000
N2646       N  0.44174025  0.61983618  0.96473611    -0.82700
H2647       H  0.50105151  0.63944886  0.94565359     0.17800
N2648       N  0.51420914  0.71239863  0.94336068    -0.81300
H2649       H  0.43389813  0.63524921  0.96781767     0.33500
H2650       H  0.41553612  0.59529263  0.96328996     0.37900
H2651       H  0.52204493  0.69706061  0.94026338     0.33400
H2652       H  0.49311664  0.71688220  0.94113962     0.30100
H2653       H  0.40078677  0.73024235  0.95027032     0.33400
H2654       H  0.42069888  0.70542777  0.94703138     0.30100
H2655       H  0.58470860  0.86421159  0.95118409     0.38000
H2656       H  0.59484354  0.83715496  0.95603388     0.33500
C2657       C  0.66943138  0.49841087  0.04712971    -0.20300
C2658       C  0.70619953  0.52525663  0.04451298     0.35900
C2659       C  0.73598428  0.51549341  0.04418666    -0.26300
C2660       C  0.73017418  0.47968283  0.04653610     0.02400
C2661       C  0.69408827  0.45334325  0.04935233     0.27200
C2662       C  0.66409717  0.46295392  0.04962286    -0.25400
N2663       N  0.71371864  0.56272508  0.04226758    -0.82800
H2664       H  0.76405559  0.53624885  0.04215231     0.13000
C2665       C  0.76281058  0.47103143  0.04619715     0.02300
N2666       N  0.68788163  0.41671702  0.05184069    -0.81300
H2667       H  0.63601474  0.44203118  0.05162832     0.17800
C2668       C  0.77913127  0.46650239  0.05167067    -0.26200
C2669       C  0.81287723  0.46265753  0.05158391     0.35800
C2670       C  0.83021174  0.46261761  0.04586324    -0.20200
C2671       C  0.81252513  0.46534120  0.04037890    -0.25500
C2672       C  0.77908744  0.46956145  0.04048706     0.27200
H2673       H  0.76647945  0.46776959  0.05604570     0.13000
N2674       N  0.83047859  0.46074245  0.05728757    -0.82700
H2675       H  0.82512836  0.46467613  0.03596694     0.17800
N2676       N  0.76180636  0.47280438  0.03482896    -0.81300
H2677       H  0.81335554  0.45990008  0.06104052     0.33500
H2678       H  0.85729782  0.48697304  0.05769642     0.37900
H2679       H  0.77761919  0.47169437  0.03102889     0.33400
H2680       H  0.73361594  0.44820750  0.03451501     0.30100
H2681       H  0.65987593  0.40080819  0.05380212     0.33400
H2682       H  0.68868640  0.39986955  0.04816906     0.30100
H2683       H  0.72119030  0.56471247  0.03760343     0.38000
H2684       H  0.73797327  0.58463714  0.04464739     0.33500
C2685       C  0.34916447  0.50296644  0.04125161    -0.20300
C2686       C  0.33090420  0.50645292  0.04665633     0.35900
C2687       C  0.29318091  0.50182168  0.04629779    -0.26300
C2688       C  0.27336909  0.49423153  0.04066483     0.02400
C2689       C  0.29217391  0.49283838  0.03520611     0.27200
C2690       C  0.33015258  0.49742252  0.03554438    -0.25400
N2691       N  0.35080883  0.51470684  0.05250271    -0.82800
H2692       H  0.27892870  0.50391151  0.05044615     0.13000
C2693       C  0.23280032  0.48771295  0.04065484     0.02300
N2694       N  0.27224168  0.48586748  0.02938809    -0.81300
H2695       H  0.34422104  0.49507407  0.03139648     0.17800
C2696       C  0.22559128  0.51594153  0.03798556    -0.26200
C2697       C  0.18850352  0.51295861  0.03847680     0.35800
C2698       C  0.15763624  0.48042100  0.04160568    -0.20200
C2699       C  0.16486125  0.45176952  0.04417225    -0.25500
C2700       C  0.20217217  0.45513311  0.04372963     0.27200
H2701       H  0.24947954  0.54119681  0.03571844     0.13000
N2702       N  0.18262064  0.54367711  0.03601782    -0.82700
H2703       H  0.14136015  0.42671715  0.04653599     0.17800
N2704       N  0.20934662  0.42587509  0.04644449    -0.81300
H2705       H  0.20808543  0.56521099  0.03383520     0.33500
H2706       H  0.17755566  0.55745478  0.03974611     0.37900
H2707       H  0.18387332  0.40386334  0.04855856     0.33400
H2708       H  0.21613335  0.41236845  0.04287218     0.30100
H2709       H  0.29006438  0.48572762  0.02581770     0.33400
H2710       H  0.24753056  0.45767436  0.02953860     0.30100
H2711       H  0.37578746  0.54265564  0.05221167     0.38000
H2712       H  0.33327391  0.51609770  0.05601138     0.33500
C2713       C  0.50867482  0.34646200  0.04698496    -0.20300
C2714       C  0.50546008  0.32846457  0.05278674     0.35900
C2715       C  0.50162336  0.29083412  0.05304758    -0.26300
C2716       C  0.49993185  0.27040526  0.04765457     0.02400
C2717       C  0.50314150  0.28815206  0.04187679     0.27200
C2718       C  0.50743778  0.32587718  0.04159932    -0.25400
N2719       N  0.50448712  0.34758181  0.05837794    -0.82800
H2720       H  0.49862567  0.27675442  0.05747019     0.13000
C2721       C  0.49303890  0.22968750  0.04806941     0.02300
N2722       N  0.50194074  0.26765408  0.03631283    -0.81300
H2723       H  0.50997778  0.33933611  0.03713480     0.17800
C2724       C  0.45792833  0.19871918  0.04571600    -0.26200
C2725       C  0.45073534  0.15985847  0.04572972     0.35800
C2726       C  0.48000440  0.15194976  0.04795937    -0.20200
C2727       C  0.51448888  0.18292744  0.05056447    -0.25500
C2728       C  0.52116737  0.22165556  0.05067390     0.27200
H2729       H  0.43596130  0.20499397  0.04387638     0.13000
N2730       N  0.41364452  0.12846492  0.04355647    -0.82700
H2731       H  0.53688963  0.17719421  0.05236856     0.17800
N2732       N  0.55662538  0.25294323  0.05332379    -0.81300
H2733       H  0.39562271  0.13937478  0.04204426     0.33500
H2734       H  0.39933167  0.11027307  0.04732635     0.37900
H2735       H  0.57409142  0.24207578  0.05510919     0.33400
H2736       H  0.57278039  0.27238091  0.04977624     0.30100
H2737       H  0.50440201  0.28458653  0.03243771     0.33400
H2738       H  0.52661788  0.26407444  0.03630820     0.30100
H2739       H  0.47832624  0.34852101  0.05834129     0.38000
H2740       H  0.50303101  0.33084804  0.06222591     0.33500
C2741       C  0.51028483  0.66675663  0.04238911    -0.20300
C2742       C  0.50125354  0.68376174  0.04742309     0.35900
C2743       C  0.49863739  0.71783054  0.04648485    -0.26300
C2744       C  0.50479271  0.73516613  0.04064167     0.02400
C2745       C  0.51440045  0.71875881  0.03563514     0.27200
C2746       C  0.51674661  0.68449300  0.03654382    -0.25400
N2747       N  0.49360503  0.66579223  0.05341838    -0.82800
H2748       H  0.49119690  0.73070089  0.05030645     0.13000
C2749       C  0.49987222  0.76991592  0.03984406     0.02300
N2750       N  0.52157546  0.73691589  0.02966074    -0.81300
H2751       H  0.52369714  0.67157418  0.03267368     0.17800
C2752       C  0.53319140  0.80738041  0.03936578    -0.26200
C2753       C  0.52954622  0.84125668  0.03930777     0.35800
C2754       C  0.49178960  0.83735246  0.03969006    -0.20200
C2755       C  0.45838300  0.79968944  0.03978381    -0.25500
C2756       C  0.46210976  0.76585518  0.03990438     0.27200
H2757       H  0.56209577  0.81018315  0.03925231     0.13000
N2758       N  0.56399675  0.87966507  0.03900743    -0.82700
H2759       H  0.42947001  0.79673694  0.04010903     0.17800
N2760       N  0.42784690  0.72737822  0.04028884    -0.81300
H2761       H  0.58945617  0.87746207  0.03882575     0.33500
H2762       H  0.56274862  0.89264339  0.03486685     0.37900
H2763       H  0.40228077  0.72941026  0.04035914     0.33400
H2764       H  0.42669873  0.71217140  0.03626406     0.30100
H2765       H  0.52858691  0.72136852  0.02647468     0.33400
H2766       H  0.49535846  0.73497707  0.02815125     0.30100
H2767       H  0.46788426  0.63843424  0.05309578     0.38000
H2768       H  0.48791444  0.68228018  0.05661438     0.33500
C2769       C  0.46747863  0.47577384  0.01695347    -0.20300
C2770       C  0.49826478  0.47348053  0.01398002     0.35900
C2771       C  0.50055671  0.47431756  0.00753975    -0.26300
C2772       C  0.47259395  0.47735315  0.00395439     0.02400
C2773       C  0.44147991  0.47942767  0.00686559     0.27200
C2774       C  0.43943636  0.47906693  0.01337439    -0.25400
N2775       N  0.52830655  0.47190252  0.01751276    -0.82800
H2776       H  0.52465819  0.47307093  0.00531874     0.13000
C2777       C  0.47735197  0.47918790  0.99716175     0.02300
N2778       N  0.41213813  0.48167332  0.00320646    -0.81300
H2779       H  0.41605102  0.48128695  0.01565179     0.17800
C2780       C  0.45939254  0.44431613  0.99371751    -0.26200
C2781       C  0.46549618  0.44471890  0.98730944     0.35800
C2782       C  0.49099304  0.48076531  0.98432568    -0.20200
C2783       C  0.50888074  0.51558278  0.98781978    -0.25500
C2784       C  0.50208323  0.51519133  0.99419021     0.27200
H2785       H  0.44037523  0.41675591  0.99604227     0.13000
N2786       N  0.44496503  0.40891349  0.98381462    -0.82700
H2787       H  0.52802350  0.54332435  0.98555246     0.17800
N2788       N  0.52028249  0.55119137  0.99766788    -0.81300
H2789       H  0.42777049  0.38510620  0.98671261     0.33500
H2790       H  0.42542341  0.41181193  0.98088082     0.37900
H2791       H  0.53794581  0.57505457  0.99480934     0.33400
H2792       H  0.49789481  0.55589309  0.99929679     0.30100
H2793       H  0.39102125  0.48249218  0.00604333     0.33400
H2794       H  0.42595105  0.50831544  0.00080384     0.30100
H2795       H  0.52887885  0.44647603  0.01625112     0.38000
H2796       H  0.55541017  0.49623742  0.01633903     0.33500
C2797       C  0.95862750  0.37711889  0.06918838    -0.20300
C2798       C  0.98826449  0.37869638  0.07312378     0.35900
C2799       C  0.97748999  0.35687460  0.07865490    -0.26300
C2800       C  0.93790556  0.33379522  0.08039600     0.02400
C2801       C  0.90836376  0.33168207  0.07644824     0.27200
C2802       C  0.91897154  0.35333081  0.07092698    -0.25400
N2803       N  0.02916961  0.40298098  0.07159193    -0.82800
H2804       H  0.00015622  0.35865827  0.08171445     0.13000
C2805       C  0.92761999  0.31291768  0.08644858     0.02300
N2806       N  0.86758849  0.30729803  0.07805344    -0.81300
H2807       H  0.89588942  0.35128966  0.06794151     0.17800
C2808       C  0.90629368  0.32141686  0.09076855    -0.26200
C2809       C  0.89523723  0.30203881  0.09649616     0.35800
C2810       C  0.90507687  0.27274875  0.09791817    -0.20200
C2811       C  0.92738085  0.26505826  0.09364577    -0.25500
C2812       C  0.93862271  0.28471370  0.08792868     0.27200
H2813       H  0.89856518  0.34366594  0.08967744     0.13000
N2814       N  0.87467162  0.31257371  0.10090209    -0.82700
H2815       H  0.93528982  0.24290796  0.09470421     0.17800
N2816       N  0.96052102  0.27561016  0.08357255    -0.81300
H2817       H  0.86948414  0.33433340  0.09911985     0.33500
H2818       H  0.89314482  0.32499660  0.10471495     0.37900
H2819       H  0.96639655  0.25433482  0.08536370     0.33400
H2820       H  0.94270712  0.26311118  0.07969678     0.30100
H2821       H  0.84947649  0.30903567  0.07468043     0.33400
H2822       H  0.86145483  0.27812228  0.07810094     0.30100
H2823       H  0.03576451  0.43227905  0.07180065     0.38000
H2824       H  0.04695939  0.39996258  0.07488194     0.33500
C2825       C  0.83066972  0.16146916  0.18401821    -0.20300
C2826       C  0.86500796  0.17274011  0.18047138     0.35900
C2827       C  0.86181617  0.16595744  0.17405948    -0.26300
C2828       C  0.82516228  0.14793896  0.17109960     0.02400
C2829       C  0.79077038  0.13578073  0.17462735     0.27200
C2830       C  0.79392656  0.14312448  0.18102738    -0.25400
N2831       N  0.90306877  0.19155800  0.18336454    -0.82800
H2832       H  0.88813022  0.17530054  0.17132565     0.13000
C2833       C  0.82364098  0.14440913  0.16425500     0.02300
N2834       N  0.75273159  0.11475765  0.17174270    -0.81300
H2835       H  0.76741993  0.13343571  0.18372529     0.17800
C2836       C  0.82613708  0.11361647  0.16136588    -0.26200
C2837       C  0.82621931  0.11072414  0.15486238     0.35800
C2838       C  0.82303486  0.13877066  0.15121480    -0.20200
C2839       C  0.82067085  0.16951558  0.15414249    -0.25500
C2840       C  0.82169570  0.17305861  0.16059669     0.27200
H2841       H  0.82834531  0.09204470  0.16419487     0.13000
N2842       N  0.82940441  0.07951984  0.15196178    -0.82700
H2843       H  0.81939331  0.19178317  0.15135682     0.17800
N2844       N  0.82275161  0.20670939  0.16344146    -0.81300
H2845       H  0.83159232  0.06141099  0.15528577     0.33500
H2846       H  0.80326999  0.06207903  0.14954596     0.37900
H2847       H  0.82275241  0.22588456  0.16009433     0.33400
H2848       H  0.79697251  0.19701577  0.16599012     0.30100
H2849       H  0.73043653  0.10709637  0.17500243     0.33400
H2850       H  0.75018521  0.13354971  0.16860805     0.30100
H2851       H  0.90833479  0.21873366  0.18505030     0.38000
H2852       H  0.92512706  0.19752870  0.18013244     0.33500
C2853       C  0.00298708  0.16700296  0.12470089    -0.20300
C2854       C  0.03676400  0.18779409  0.12095151     0.35900
C2855       C  0.06843315  0.18095426  0.12167441    -0.26300
C2856       C  0.06712007  0.15393361  0.12603547     0.02400
C2857       C  0.03384138  0.13339420  0.12979624     0.27200
C2858       C  0.00231580  0.14036081  0.12913498    -0.25400
N2859       N  0.03902166  0.21574757  0.11645106    -0.82800
H2860       H  0.09434058  0.19664716  0.11880504     0.13000
C2861       C  0.10028495  0.14629074  0.12638699     0.02300
N2862       N  0.03182847  0.10483490  0.13415590    -0.81300
H2863       H  0.97658396  0.12392115  0.13200655     0.17800
C2864       C  0.12375284  0.15673725  0.13170734    -0.26200
C2865       C  0.15792545  0.15359447  0.13187570     0.35800
C2866       C  0.16833176  0.13968265  0.12661848    -0.20200
C2867       C  0.14355172  0.12722853  0.12144470    -0.25500
C2868       C  0.10947587  0.13020897  0.12129054     0.27200
H2869       H  0.11621470  0.16880998  0.13562554     0.13000
N2870       N  0.18339165  0.16701166  0.13716477    -0.82700
H2871       H  0.15149631  0.11616674  0.11743999     0.17800
N2872       N  0.08458631  0.11793785  0.11592909    -0.81300
H2873       H  0.17240713  0.17822099  0.14050369     0.33500
H2874       H  0.18297165  0.14251947  0.13914478     0.37900
H2875       H  0.09563624  0.10703029  0.11255318     0.33400
H2876       H  0.05718227  0.09456198  0.11724201     0.30100
H2877       H  0.00523517  0.09221908  0.13657362     0.33400
H2878       H  0.03192104  0.08208639  0.13165739     0.30100
H2879       H  0.03959923  0.23917038  0.11884042     0.38000
H2880       H  0.06541107  0.22752092  0.11398739     0.33500
C2881       C  0.50110096  0.16089012  0.12072804    -0.20300
C2882       C  0.53190998  0.19272945  0.11745482     0.35900
C2883       C  0.56996920  0.19753540  0.11749790    -0.26300
C2884       C  0.57829201  0.17195609  0.12082813     0.02400
C2885       C  0.54786883  0.14024850  0.12406777     0.27200
C2886       C  0.50978176  0.13510812  0.12399898    -0.25400
N2887       N  0.52496050  0.22068937  0.11422333    -0.82800
H2888       H  0.59361942  0.22205694  0.11506164     0.13000
C2889       C  0.61922257  0.17921228  0.12107279     0.02300
N2890       N  0.55583474  0.11328442  0.12739880    -0.81300
H2891       H  0.48671172  0.11058603  0.12651497     0.17800
C2892       C  0.63816545  0.18641574  0.12680076    -0.26200
C2893       C  0.67593292  0.19108983  0.12733254     0.35800
C2894       C  0.69522073  0.18841202  0.12200189    -0.20200
C2895       C  0.67685043  0.18280932  0.11623137    -0.25500
C2896       C  0.63891291  0.17791657  0.11571734     0.27200
H2897       H  0.62317866  0.18809774  0.13088639     0.13000
N2898       N  0.69472608  0.19858312  0.13326352    -0.82700
H2899       H  0.69147342  0.18067092  0.11213523     0.17800
N2900       N  0.61990171  0.17061642  0.10981032    -0.81300
H2901       H  0.67640268  0.19923728  0.13670388     0.33500
H2902       H  0.71957574  0.22668408  0.13311906     0.37900
H2903       H  0.63838411  0.17063560  0.10633703     0.33400
H2904       H  0.59537848  0.14229071  0.10991304     0.30100
H2905       H  0.53038445  0.09160615  0.12956389     0.33400
H2906       H  0.56404967  0.09884360  0.12418515     0.30100
H2907       H  0.51896384  0.23640858  0.11752512     0.38000
H2908       H  0.55031300  0.24130178  0.11190341     0.33500
C2909       C  0.37649311  0.09719609  0.09779317    -0.20300
C2910       C  0.41628005  0.10863627  0.09657997     0.35900
C2911       C  0.42605161  0.09628954  0.09109815    -0.26300
C2912       C  0.39710690  0.07260586  0.08679719     0.02400
C2913       C  0.35751166  0.06152977  0.08795666     0.27200
C2914       C  0.34757763  0.07358143  0.09345983    -0.25400
N2915       N  0.44654201  0.13180760  0.10098278    -0.82800
H2916       H  0.45639222  0.10447671  0.09022910     0.13000
C2917       C  0.40863293  0.05910890  0.08114929     0.02300
N2918       N  0.32762929  0.03843318  0.08350286    -0.81300
H2919       H  0.31712026  0.06492243  0.09433124     0.17800
C2920       C  0.39148567  0.01866106  0.07995110    -0.26200
C2921       C  0.40156746  0.00465052  0.07467254     0.35800
C2922       C  0.42944005  0.03182059  0.07044573    -0.20200
C2923       C  0.44697345  0.07234821  0.07174038    -0.25500
C2924       C  0.43677451  0.08621272  0.07700274     0.27200
H2925       H  0.37033746  0.99787247  0.08319844     0.13000
N2926       N  0.38378141  0.96300410  0.07364947    -0.82700
H2927       H  0.46817948  0.09359857  0.06855126     0.17800
N2928       N  0.45440868  0.12778827  0.07809594    -0.81300
H2929       H  0.36345470  0.94726093  0.07712250     0.33500
H2930       H  0.40600227  0.95576893  0.07398009     0.37900
H2931       H  0.47468806  0.14380829  0.07463251     0.33400
H2932       H  0.43211856  0.13495420  0.07782940     0.30100
H2933       H  0.30002136  0.03274105  0.08503861     0.33400
H2934       H  0.33375680  0.05531904  0.07949487     0.30100
H2935       H  0.44113079  0.11474432  0.10495454     0.38000
H2936       H  0.47414800  0.13806130  0.09935254     0.33500
C2937       C  0.33160757  0.15823133  0.18342074    -0.20300
C2938       C  0.36200438  0.16447079  0.17931195     0.35900
C2939       C  0.35714469  0.16827294  0.17296181    -0.26300
C2940       C  0.32310943  0.16733577  0.17066934     0.02400
C2941       C  0.29322922  0.16212859  0.17482972     0.27200
C2942       C  0.29742983  0.15675866  0.18112086    -0.25400
N2943       N  0.39744223  0.16663812  0.18158493    -0.82800
H2944       H  0.37993376  0.17176686  0.16977766     0.13000
C2945       C  0.31857916  0.17061805  0.16390120     0.02300
N2946       N  0.25910446  0.16315894  0.17267110    -0.81300
H2947       H  0.27437896  0.15277282  0.18429344     0.17800
C2948       C  0.28444640  0.14198924  0.16092214    -0.26200
C2949       C  0.27974704  0.14270454  0.15451595     0.35800
C2950       C  0.31028184  0.17207942  0.15089288    -0.20200
C2951       C  0.34386383  0.20164295  0.15394178    -0.25500
C2952       C  0.34816931  0.20138752  0.16038006     0.27200
H2953       H  0.26146513  0.11820567  0.16357272     0.13000
N2954       N  0.24403485  0.11304638  0.15174554    -0.82700
H2955       H  0.36759350  0.22463782  0.15129122     0.17800
N2956       N  0.38265144  0.23209874  0.16334688    -0.81300
H2957       H  0.22061129  0.11471462  0.15372278     0.33500
H2958       H  0.24063793  0.08555576  0.15283505     0.37900
H2959       H  0.40166594  0.25246790  0.16010950     0.33400
H2960       H  0.37356810  0.24729152  0.16625671     0.30100
H2961       H  0.23962410  0.15820095  0.17629951     0.33400
H2962       H  0.26856094  0.19163153  0.17106250     0.30100
H2963       H  0.38991532  0.13910014  0.18341233     0.38000
H2964       H  0.41709067  0.17188768  0.17797056     0.33500
C2965       C  0.48078039  0.15778149  0.20678272    -0.20300
C2966       C  0.48164334  0.12237967  0.20727331     0.35900
C2967       C  0.51795199  0.12374477  0.20785201    -0.26300
C2968       C  0.55337965  0.15982309  0.20808265     0.02400
C2969       C  0.55249642  0.19523346  0.20740228     0.27200
C2970       C  0.51619396  0.19375830  0.20663672    -0.25400
N2971       N  0.44552409  0.08525995  0.20729790    -0.82800
H2972       H  0.51861393  0.09654943  0.20823946     0.13000
C2973       C  0.59102446  0.16003239  0.20912679     0.02300
N2974       N  0.58825327  0.23257447  0.20776874    -0.81300
H2975       H  0.51535797  0.22092190  0.20636314     0.17800
C2976       C  0.62257152  0.18100946  0.20508160    -0.26200
C2977       C  0.65879171  0.18254643  0.20594388     0.35800
C2978       C  0.66293347  0.16027090  0.21073563    -0.20200
C2979       C  0.63139681  0.13977068  0.21485130    -0.25500
C2980       C  0.59582763  0.13997202  0.21416016     0.27200
H2981       H  0.61902972  0.19664869  0.20124419     0.13000
N2982       N  0.69146299  0.20730229  0.20202842    -0.82700
H2983       H  0.63430276  0.12323523  0.21861205     0.17800
N2984       N  0.56464074  0.12006698  0.21856968    -0.81300
H2985       H  0.68337803  0.22144961  0.19873998     0.33500
H2986       H  0.71287631  0.22946314  0.20479970     0.37900
H2987       H  0.57282313  0.10679319  0.22199427     0.33400
H2988       H  0.56036660  0.14135908  0.22076786     0.30100
H2989       H  0.58249596  0.25569661  0.20721183     0.33400
H2990       H  0.59962641  0.23522234  0.21221446     0.30100
H2991       H  0.43224788  0.08186793  0.20298879     0.38000
H2992       H  0.45115166  0.06201432  0.20778628     0.33500
C2993       C  0.97475500  0.14704694  0.21514399    -0.20300
C2994       C  0.99459239  0.15678051  0.22088163     0.35900
C2995       C  0.03281422  0.16202497  0.22126680    -0.26300
C2996       C  0.05157155  0.15822563  0.21602631     0.02400
C2997       C  0.03203553  0.14891021  0.21030570     0.27200
C2998       C  0.99385440  0.14330576  0.20992332    -0.25400
N2999       N  0.97633945  0.16221672  0.22624714    -0.82800
H3000       H  0.04817177  0.16937590  0.22564451     0.13000
C3001       C  0.09148731  0.16325587  0.21650509     0.02300
N3002       N  0.05112227  0.14503135  0.20491020    -0.81300
H3003       H  0.97886316  0.13591238  0.20551341     0.17800
C3004       C  0.09523059  0.12969690  0.21696356    -0.26200
C3005       C  0.13211599  0.13242527  0.21667490     0.35800
C3006       C  0.16640588  0.16968069  0.21586183    -0.20200
C3007       C  0.16260588  0.20337975  0.21550492    -0.25500
C3008       C  0.12543003  0.20054818  0.21586439     0.27200
H3009       H  0.06909406  0.10097901  0.21738219     0.13000
N3010       N  0.13348167  0.09661696  0.21689744    -0.82700
H3011       H  0.18869874  0.23193264  0.21490457     0.17800
N3012       N  0.12191585  0.23524914  0.21552873    -0.81300
H3013       H  0.14935536  0.09702441  0.22078960     0.33500
H3014       H  0.14771332  0.09483080  0.21294136     0.37900
H3015       H  0.14967431  0.26037128  0.21511957     0.33400
H3016       H  0.10655077  0.23351811  0.21149515     0.30100
H3017       H  0.03262486  0.13760496  0.20107285     0.33400
H3018       H  0.07551182  0.17261345  0.20398066     0.30100
H3019       H  0.97300095  0.18667288  0.22544653     0.38000
H3020       H  0.99473117  0.16902838  0.23008741     0.33500
C3021       C  0.83453244  0.01185820  0.12671624    -0.20300
C3022       C  0.86879204  0.00871763  0.12720635     0.35900
C3023       C  0.86553601  0.97129459  0.12690666    -0.26300
C3024       C  0.82888652  0.93722196  0.12606508     0.02400
C3025       C  0.79463330  0.94018845  0.12572649     0.27200
C3026       C  0.79781133  0.97745927  0.12602677    -0.25400
N3027       N  0.90680223  0.04350509  0.12774909    -0.82800
H3028       H  0.89172802  0.96870366  0.12716618     0.13000
C3029       C  0.82666799  0.89858540  0.12533775     0.02300
N3030       N  0.75680104  0.90531139  0.12505512    -0.81300
H3031       H  0.77151828  0.97978554  0.12561928     0.17800
C3032       C  0.81965176  0.87471348  0.13051572    -0.26200
C3033       C  0.81600319  0.83728844  0.12997782     0.35800
C3034       C  0.81968631  0.82351220  0.12410949    -0.20200
C3035       C  0.82642144  0.84757273  0.11892046    -0.25500
C3036       C  0.83020907  0.88506657  0.11948605     0.27200
H3037       H  0.81672130  0.88527944  0.13498947     0.13000
N3038       N  0.80811677  0.81313607  0.13536512    -0.82700
H3039       H  0.82972651  0.83752114  0.11442583     0.17800
N3040       N  0.83842813  0.90985242  0.11416814    -0.81300
H3041       H  0.80689349  0.82782047  0.13930758     0.33500
H3042       H  0.78020240  0.78840265  0.13482805     0.37900
H3043       H  0.84088800  0.89591216  0.11022399     0.33400
H3044       H  0.81432212  0.91386706  0.11345621     0.30100
H3045       H  0.73448876  0.91249938  0.12496474     0.33400
H3046       H  0.75621125  0.89281940  0.12077212     0.30100
H3047       H  0.91217747  0.05955535  0.12366392     0.38000
H3048       H  0.92886687  0.03606023  0.12810227     0.33500
C3049       C  0.80340129  0.49640327  0.12156947    -0.20300
C3050       C  0.80188102  0.47750419  0.11591459     0.35900
C3051       C  0.80871727  0.44555204  0.11589918    -0.26300
C3052       C  0.81618324  0.43160995  0.12138717     0.02400
C3053       C  0.81548461  0.44879440  0.12703846     0.27200
C3054       C  0.80939338  0.48108411  0.12707287    -0.25400
N3055       N  0.79488484  0.49143274  0.11018967    -0.82800
H3056       H  0.80882629  0.43175505  0.11157642     0.13000
C3057       C  0.82514084  0.39919084  0.12118361     0.02300
N3058       N  0.82120447  0.43342769  0.13271920    -0.81300
H3059       H  0.80981733  0.49464643  0.13144445     0.17800
C3060       C  0.86206935  0.40619320  0.12319422    -0.26200
C3061       C  0.87117825  0.37580868  0.12336135     0.35800
C3062       C  0.84290270  0.33777737  0.12131816    -0.20200
C3063       C  0.80610628  0.33114850  0.11921995    -0.25500
C3064       C  0.79684170  0.36136268  0.11918428     0.27200
H3065       H  0.88369249  0.43548057  0.12471201     0.13000
N3066       N  0.90919932  0.38379068  0.12547591    -0.82700
H3067       H  0.78402340  0.30195451  0.11773649     0.17800
N3068       N  0.75864678  0.35370651  0.11722049    -0.81300
H3069       H  0.92757435  0.41392958  0.12622970     0.33500
H3070       H  0.90529912  0.37047674  0.12979079     0.37900
H3071       H  0.74122000  0.32433362  0.11587698     0.33400
H3072       H  0.74475710  0.35780534  0.12102983     0.30100
H3073       H  0.82016377  0.44956425  0.13647797     0.33400
H3074       H  0.79756680  0.40479988  0.13323061     0.30100
H3075       H  0.76560013  0.48493423  0.11021356     0.38000
H3076       H  0.79747415  0.47595566  0.10646543     0.33500
C3077       C  0.98411567  0.81245592  0.12509205    -0.20300
C3078       C  0.00598124  0.82919726  0.11964371     0.35900
C3079       C  0.04359189  0.86207188  0.11998651    -0.26300
C3080       C  0.05994822  0.87951134  0.12564665     0.02400
C3081       C  0.03807586  0.86394605  0.13111532     0.27200
C3082       C  0.00019142  0.83041395  0.13078892    -0.25400
N3083       N  0.98967135  0.81363911  0.11370081    -0.82800
H3084       H  0.05986772  0.87467551  0.11576450     0.13000
C3085       C  0.09897394  0.91565804  0.12559660     0.02300
N3086       N  0.05448687  0.88215804  0.13694624    -0.81300
H3087       H  0.98352831  0.81794390  0.13497948     0.17800
C3088       C  0.10153326  0.95142649  0.12719534    -0.26200
C3089       C  0.13682984  0.98713506  0.12644701     0.35800
C3090       C  0.17040203  0.98685474  0.12413448    -0.20200
C3091       C  0.16782184  0.95101567  0.12254010    -0.25500
C3092       C  0.13239023  0.91530516  0.12327169     0.27200
H3093       H  0.07547938  0.95152871  0.12882687     0.13000
N3094       N  0.13846633  0.02374051  0.12787586    -0.82700
H3095       H  0.19367706  0.95086731  0.12082162     0.17800
N3096       N  0.13002020  0.87866689  0.12163949    -0.81300
H3097       H  0.11129479  0.01876284  0.12951508     0.33500
H3098       H  0.14380043  0.03952402  0.12376306     0.37900
H3099       H  0.15710552  0.88349794  0.11998387     0.33400
H3100       H  0.12418551  0.86205665  0.12567175     0.30100
H3101       H  0.03460803  0.86727726  0.14051308     0.33400
H3102       H  0.07915226  0.87920245  0.13775618     0.30100
H3103       H  0.00831164  0.80568988  0.11147613     0.38000
H3104       H  0.98922037  0.83595725  0.11113031     0.33500
C3105       C  0.48472554  0.30940963  0.12180062    -0.20300
C3106       C  0.50581777  0.33121025  0.12704152     0.35900
C3107       C  0.53651211  0.37012036  0.12630211    -0.26300
C3108       C  0.54695573  0.38749012  0.12045176     0.02400
C3109       C  0.52654466  0.36560390  0.11520765     0.27200
C3110       C  0.49564495  0.32675761  0.11593603    -0.25400
N3111       N  0.49656482  0.31361962  0.13306992    -0.82800
H3112       H  0.55299168  0.38682892  0.13029646     0.13000
C3113       C  0.58089777  0.42789656  0.11990694     0.02300
N3114       N  0.53709700  0.38305767  0.10918036    -0.81300
H3115       H  0.47940203  0.31026277  0.11191346     0.17800
C3116       C  0.61416402  0.43371220  0.11665795    -0.26200
C3117       C  0.64883063  0.47043256  0.11662824     0.35800
C3118       C  0.64987099  0.50260439  0.11980601    -0.20200
C3119       C  0.61579379  0.49680407  0.12288318    -0.25500
C3120       C  0.58139137  0.45977637  0.12297345     0.27200
H3121       H  0.61362285  0.40889256  0.11436822     0.13000
N3122       N  0.68322768  0.47443885  0.11358796    -0.82700
H3123       H  0.61603878  0.52111352  0.12529170     0.17800
N3124       N  0.54704085  0.45420151  0.12622089    -0.81300
H3125       H  0.67688578  0.44846057  0.11130142     0.33500
H3126       H  0.70377773  0.47866161  0.11700629     0.37900
H3127       H  0.55221690  0.48050801  0.12826228     0.33400
H3128       H  0.52470503  0.44664458  0.12297080     0.30100
H3129       H  0.51923870  0.36299930  0.10581064     0.33400
H3130       H  0.53143717  0.40641275  0.10906384     0.30100
H3131       H  0.50288826  0.29069715  0.13306716     0.38000
H3132       H  0.51473455  0.33374244  0.13640921     0.33500
C3133       C  0.60841293  0.56333971  0.06948182    -0.20300
C3134       C  0.64139340  0.55805238  0.07014351     0.35900
C3135       C  0.66390444  0.57067217  0.07556566    -0.26300
C3136       C  0.65405015  0.58800106  0.08036782     0.02400
C3137       C  0.62118671  0.59322779  0.07974719     0.27200
C3138       C  0.59889832  0.58123636  0.07427173    -0.25400
N3139       N  0.65285273  0.54123164  0.06522951    -0.82800
H3140       H  0.68929755  0.56688497  0.07607083     0.13000
C3141       C  0.67828518  0.59992658  0.08605379     0.02300
N3142       N  0.61042046  0.61027750  0.08470663    -0.81300
H3143       H  0.57357531  0.58514330  0.07378510     0.17800
C3144       C  0.70127037  0.63992432  0.08753235    -0.26200
C3145       C  0.72552102  0.65229030  0.09280049     0.35800
C3146       C  0.72610370  0.62378196  0.09675003    -0.20200
C3147       C  0.70329218  0.58370450  0.09515648    -0.25500
C3148       C  0.67932010  0.57154796  0.08989071     0.27200
H3149       H  0.70065882  0.66157899  0.08450402     0.13000
N3150       N  0.74968348  0.69358364  0.09408728    -0.82700
H3151       H  0.70326486  0.56143880  0.09811188     0.17800
N3152       N  0.65543757  0.53039727  0.08847100    -0.81300
H3153       H  0.74513579  0.71039044  0.09079787     0.33500
H3154       H  0.77903712  0.70065108  0.09365162     0.37900
H3155       H  0.65977262  0.51326208  0.09172509     0.33400
H3156       H  0.62599626  0.52313233  0.08884060     0.30100
H3157       H  0.58549893  0.61202327  0.08353017     0.33400
H3158       H  0.60252597  0.59118252  0.08847492     0.30100
H3159       H  0.63274285  0.51104573  0.06513701     0.38000
H3160       H  0.68018383  0.54381830  0.06616844     0.33500
C3161       C  0.99936437  0.82424378  0.21345441    -0.20300
C3162       C  0.03787509  0.83217738  0.21211765     0.35900
C3163       C  0.06903132  0.87117366  0.21226668    -0.26300
C3164       C  0.06241896  0.90213339  0.21374245     0.02400
C3165       C  0.02428406  0.89438953  0.21519119     0.27200
C3166       C  0.99306548  0.85540832  0.21506454    -0.25400
N3167       N  0.04526187  0.80068880  0.21067244    -0.82800
H3168       H  0.09864341  0.87759491  0.21119945     0.13000
C3169       C  0.09602624  0.94257570  0.21372784     0.02300
N3170       N  0.01747243  0.92616487  0.21671255    -0.81300
H3171       H  0.96354064  0.84944510  0.21607892     0.17800
C3172       C  0.10007314  0.96787868  0.20887478    -0.26200
C3173       C  0.13309926  0.00559213  0.20846605     0.35800
C3174       C  0.16305996  0.01763666  0.21298196    -0.20200
C3175       C  0.15807704  0.99274275  0.21796072    -0.25500
C3176       C  0.12475111  0.95524809  0.21838141     0.27200
H3177       H  0.07754903  0.95805857  0.20534549     0.13000
N3178       N  0.13485267  0.03058874  0.20347330    -0.82700
H3179       H  0.18090317  0.00215474  0.22143400     0.17800
N3180       N  0.12021366  0.92962522  0.22343772    -0.81300
H3181       H  0.11037233  0.03434999  0.20386763     0.33500
H3182       H  0.15923397  0.05875226  0.20383703     0.37900
H3183       H  0.14421082  0.94329335  0.22643921     0.33400
H3184       H  0.09547187  0.92488246  0.22594698     0.30100
H3185       H  0.98764676  0.91547995  0.21761207     0.33400
H3186       H  0.03256461  0.93890724  0.22080646     0.30100
H3187       H  0.03874755  0.78311312  0.21460712     0.38000
H3188       H  0.07509323  0.81167882  0.20973458     0.33500
C3189       C  0.49725333  0.31933670  0.21102048    -0.20300
C3190       C  0.50963484  0.35186614  0.21504570     0.35900
C3191       C  0.54752998  0.38470296  0.21439993    -0.26300
C3192       C  0.57320973  0.38663021  0.20973022     0.02400
C3193       C  0.56180885  0.35351224  0.20591631     0.27200
C3194       C  0.52410582  0.32028879  0.20661296    -0.25400
N3195       N  0.48347288  0.35224191  0.21964922    -0.82800
H3196       H  0.55668860  0.40970737  0.21744058     0.13000
C3197       C  0.61079278  0.42436958  0.20872977     0.02300
N3198       N  0.58816746  0.35396360  0.20127235    -0.81300
H3199       H  0.51548064  0.29517302  0.20361927     0.17800
C3200       C  0.64695738  0.42499409  0.20868056    -0.26200
C3201       C  0.68284328  0.46064272  0.20807457     0.35800
C3202       C  0.68245827  0.49629257  0.20756342    -0.20200
C3203       C  0.64644572  0.49563635  0.20747727    -0.25500
C3204       C  0.61063454  0.46011996  0.20799386     0.27200
H3205       H  0.64725730  0.39776266  0.20931697     0.13000
N3206       N  0.71967139  0.46107939  0.20839134    -0.82700
H3207       H  0.64637595  0.52316819  0.20714214     0.17800
N3208       N  0.57406387  0.46027861  0.20787707    -0.81300
H3209       H  0.71490693  0.43262513  0.20904818     0.33500
H3210       H  0.73353663  0.47051879  0.20411450     0.37900
H3211       H  0.57906186  0.48892101  0.20737218     0.33400
H3212       H  0.55848032  0.44461045  0.20397413     0.30100
H3213       H  0.57553863  0.32713278  0.19891753     0.33400
H3214       H  0.59240002  0.37545536  0.19803267     0.30100
H3215       H  0.46100287  0.35396944  0.21733739     0.38000
H3216       H  0.49777427  0.37748741  0.22238697     0.33500
C3217       C  0.83113072  0.80936250  0.21383462    -0.20300
C3218       C  0.79586454  0.80815377  0.21207162     0.35900
C3219       C  0.79265156  0.84204598  0.21270019    -0.26300
C3220       C  0.82383867  0.87709378  0.21504015     0.02400
C3221       C  0.85887578  0.87830076  0.21688451     0.27200
C3222       C  0.86196621  0.84420696  0.21634581    -0.25400
N3223       N  0.76336233  0.77249837  0.20968766    -0.82800
H3224       H  0.76578740  0.84134071  0.21130124     0.13000
C3225       C  0.81992826  0.91276936  0.21514281     0.02300
N3226       N  0.89149715  0.91438044  0.21911759    -0.81300
H3227       H  0.88908058  0.84524118  0.21768397     0.17800
C3228       C  0.81952488  0.93018734  0.22077843    -0.26200
C3229       C  0.81480242  0.96351919  0.22095379     0.35800
C3230       C  0.81036010  0.97946301  0.21537030    -0.20200
C3231       C  0.81049479  0.96165713  0.20976022    -0.25500
C3232       C  0.81568909  0.92883219  0.20958521     0.27200
H3233       H  0.82249158  0.91746665  0.22503736     0.13000
N3234       N  0.81406417  0.98087931  0.22675420    -0.82700
H3235       H  0.80770304  0.97415916  0.20546413     0.17800
N3236       N  0.81723760  0.91196792  0.20377744    -0.81300
H3237       H  0.81765898  0.96557887  0.23040893     0.33500
H3238       H  0.78612068  0.97770646  0.22726028     0.37900
H3239       H  0.81354346  0.92715977  0.20011660     0.33400
H3240       H  0.84546614  0.91578088  0.20332411     0.30100
H3241       H  0.91505295  0.91026935  0.22028612     0.33400
H3242       H  0.90121931  0.93462116  0.21548789     0.30100
H3243       H  0.75349141  0.75154085  0.21321433     0.38000
H3244       H  0.73981800  0.77671888  0.20856299     0.33500
C3245       C  0.83827064  0.31372417  0.20760999    -0.20300
C3246       C  0.87341855  0.34790099  0.20940080     0.35900
C3247       C  0.87485818  0.38432674  0.20949115    -0.26300
C3248       C  0.84215603  0.38744910  0.20777245     0.02400
C3249       C  0.80779197  0.35388499  0.20564606     0.27200
C3250       C  0.80630705  0.31730530  0.20553208    -0.25400
N3251       N  0.90743103  0.34541435  0.21116898    -0.82800
H3252       H  0.90149463  0.41044397  0.21096764     0.13000
C3253       C  0.84439734  0.42615015  0.20826664     0.02300
N3254       N  0.77419124  0.35691369  0.20381073    -0.81300
H3255       H  0.77942863  0.29123701  0.20413234     0.17800
C3256       C  0.84138499  0.44433759  0.20291589    -0.26200
C3257       C  0.84374713  0.48120746  0.20315077     0.35800
C3258       C  0.84837281  0.50003520  0.20892066    -0.20200
C3259       C  0.85219748  0.48188076  0.21427458    -0.25500
C3260       C  0.85011413  0.44509748  0.21400567     0.27200
H3261       H  0.83776080  0.42985089  0.19851329     0.13000
N3262       N  0.84214045  0.49970630  0.19752688    -0.82700
H3263       H  0.85583410  0.49589215  0.21871933     0.17800
N3264       N  0.85301736  0.42651150  0.21954041    -0.81300
H3265       H  0.86969027  0.52482954  0.19691481     0.33500
H3266       H  0.83772114  0.48151695  0.19373247     0.37900
H3267       H  0.85738412  0.44436449  0.22337896     0.33400
H3268       H  0.82598164  0.40081230  0.22018975     0.30100
H3269       H  0.75124691  0.32953898  0.20238828     0.33400
H3270       H  0.76408906  0.36496081  0.20769943     0.30100
H3271       H  0.91672880  0.33642436  0.20729271     0.38000
H3272       H  0.93066574  0.37308627  0.21240837     0.33500
C3273       C  0.82072060  0.65335383  0.18275809    -0.20300
C3274       C  0.80647282  0.62044333  0.17878490     0.35900
C3275       C  0.81600566  0.62616195  0.17246122    -0.26300
C3276       C  0.83940047  0.66403837  0.17000785     0.02400
C3277       C  0.85353575  0.69691226  0.17395537     0.27200
C3278       C  0.84366604  0.69127926  0.18025047    -0.25400
N3279       N  0.78189447  0.58141438  0.18115473    -0.82800
H3280       H  0.80451375  0.60099188  0.16940074     0.13000
C3281       C  0.84678880  0.66916964  0.16324278     0.02300
N3282       N  0.87844129  0.73587551  0.17156226    -0.81300
H3283       H  0.85522907  0.71669656  0.18325921     0.17800
C3284       C  0.83474754  0.69214079  0.15998307    -0.26200
C3285       C  0.83895099  0.69635628  0.15357501     0.35800
C3286       C  0.85614316  0.67769698  0.15026505    -0.20200
C3287       C  0.86878890  0.65507264  0.15354871    -0.25500
C3288       C  0.86430993  0.65063860  0.16000209     0.27200
H3289       H  0.82060017  0.70587160  0.16241241     0.13000
N3290       N  0.82355313  0.71786311  0.15043832    -0.82700
H3291       H  0.88155403  0.64021392  0.15106064     0.17800
N3292       N  0.87707926  0.62711363  0.16326387    -0.81300
H3293       H  0.79352805  0.70471008  0.15143089     0.33500
H3294       H  0.83749069  0.74649411  0.15220020     0.37900
H3295       H  0.88895592  0.61519516  0.16020726     0.33400
H3296       H  0.89983563  0.64577776  0.16622587     0.30100
H3297       H  0.88639345  0.75689779  0.17505056     0.33400
H3298       H  0.90443935  0.73743166  0.17002504     0.30100
H3299       H  0.75566014  0.57950116  0.18264811     0.38000
H3300       H  0.77437927  0.56049439  0.17766026     0.33500
C3301       C  0.68856711  0.92387854  0.26342658    -0.20300
C3302       C  0.71199530  0.92077008  0.25874783     0.35900
C3303       C  0.72381103  0.94646434  0.25369168    -0.26300
C3304       C  0.71257482  0.97504110  0.25315738     0.02400
C3305       C  0.68815930  0.97750737  0.25769669     0.27200
C3306       C  0.67613827  0.95166423  0.26277272    -0.25400
N3307       N  0.72347423  0.89131345  0.25911569    -0.82800
H3308       H  0.74186112  0.94416685  0.25011714     0.13000
C3309       C  0.72656798  0.00179329  0.24776020     0.02300
N3310       N  0.67645418  0.00676452  0.25719852    -0.81300
H3311       H  0.65828002  0.95424541  0.26634817     0.17800
C3312       C  0.69913372  0.00071290  0.24351409    -0.26200
C3313       C  0.71133651  0.02371717  0.23812810     0.35800
C3314       C  0.75207488  0.04864879  0.23700967    -0.20200
C3315       C  0.77939392  0.04967499  0.24130021    -0.25500
C3316       C  0.76710591  0.02646500  0.24664495     0.27200
H3317       H  0.66805622  0.98109426  0.24434524     0.13000
N3318       N  0.68255844  0.02020361  0.23368068    -0.82700
H3319       H  0.81058747  0.06867216  0.24047545     0.17800
N3320       N  0.79561954  0.02747458  0.25091748    -0.81300
H3321       H  0.65452735  0.99762613  0.23492019     0.33500
H3322       H  0.68124101  0.04613400  0.23385468     0.37900
H3323       H  0.82420502  0.04660057  0.24936804     0.33400
H3324       H  0.79227841  0.03900506  0.25507050     0.30100
H3325       H  0.65853390  0.00469330  0.26091232     0.33400
H3326       H  0.70185797  0.03438327  0.25751362     0.30100
H3327       H  0.69788567  0.86384981  0.25880011     0.38000
H3328       H  0.74108822  0.89336094  0.25535754     0.33500
C3329       C  0.65925673  0.80702388  0.31632852    -0.20300
C3330       C  0.62733275  0.78620619  0.32038614     0.35900
C3331       C  0.63290175  0.79393637  0.32675939    -0.26300
C3332       C  0.66948399  0.82270217  0.32912798     0.02400
C3333       C  0.70126463  0.84363891  0.32503961     0.27200
C3334       C  0.69599679  0.83502218  0.31871920    -0.25400
N3335       N  0.58958673  0.75720203  0.31803038    -0.82800
H3336       H  0.60866434  0.77735887  0.32989864     0.13000
C3337       C  0.67461832  0.83020424  0.33589330     0.02300
N3338       N  0.73853568  0.87428229  0.32730624    -0.81300
H3339       H  0.72037985  0.85156412  0.31559806     0.17800
C3340       C  0.70580403  0.82931160  0.33889071    -0.26200
C3341       C  0.71244149  0.83669833  0.34523716     0.35800
C3342       C  0.68590141  0.84315883  0.34880725    -0.20200
C3343       C  0.65500288  0.84475101  0.34574369    -0.25500
C3344       C  0.64933566  0.83874075  0.33934216     0.27200
H3345       H  0.72516160  0.82262543  0.33624674     0.13000
N3346       N  0.74566226  0.83680810  0.34803537    -0.82700
H3347       H  0.63452798  0.84993351  0.34836290     0.17800
N3348       N  0.61787328  0.84105577  0.33634215    -0.81300
H3349       H  0.76088568  0.82954296  0.34482498     0.33500
H3350       H  0.76509566  0.86571546  0.34941235     0.37900
H3351       H  0.60176429  0.84728567  0.33953380     0.33400
H3352       H  0.63053801  0.86478480  0.33327962     0.30100
H3353       H  0.75885226  0.88673094  0.32371247     0.33400
H3354       H  0.73418886  0.89661944  0.32907213     0.30100
H3355       H  0.59275175  0.73451116  0.31610339     0.38000
H3356       H  0.56918758  0.74473425  0.32161305     0.33500
C3357       C  0.02174984  0.82764546  0.37349314    -0.20300
C3358       C  0.98670234  0.79169843  0.37459497     0.35900
C3359       C  0.95052502  0.79082009  0.37467515    -0.26300
C3360       C  0.94851216  0.82492610  0.37362288     0.02400
C3361       C  0.98309262  0.86052986  0.37223813     0.27200
C3362       C  0.01953710  0.86156030  0.37217579    -0.25400
N3363       N  0.98804103  0.75621032  0.37565265    -0.82800
H3364       H  0.92370251  0.76347828  0.37564429     0.13000
C3365       C  0.90975776  0.82251154  0.37415165     0.02300
N3366       N  0.98111109  0.89554211  0.37105958    -0.81300
H3367       H  0.04636536  0.88913890  0.37133368     0.17800
C3368       C  0.89837169  0.83070027  0.37983583    -0.26200
C3369       C  0.86066153  0.82598128  0.38065385     0.35800
C3370       C  0.83375021  0.81233187  0.37569131    -0.20200
C3371       C  0.84542584  0.80433015  0.36999390    -0.25500
C3372       C  0.88313504  0.80918233  0.36918417     0.27200
H3373       H  0.91900215  0.84069830  0.38364481     0.13000
N3374       N  0.84995018  0.83578935  0.38644971    -0.82700
H3375       H  0.82494240  0.79405546  0.36616462     0.17800
N3376       N  0.89437681  0.80010315  0.36337476    -0.81300
H3377       H  0.87298177  0.84514836  0.38962054     0.33500
H3378       H  0.84574669  0.85976105  0.38569299     0.37900
H3379       H  0.87122530  0.79013011  0.36021347     0.33400
H3380       H  0.91733085  0.82626757  0.36158236     0.30100
H3381       H  0.00919926  0.91933117  0.37019432     0.33400
H3382       H  0.96484002  0.89090911  0.36701886     0.30100
H3383       H  0.99837490  0.74991363  0.37161365     0.38000
H3384       H  0.95980309  0.73243251  0.37642055     0.33500
C3385       C  0.34283236  0.82577540  0.37893716    -0.20300
C3386       C  0.33780895  0.78908583  0.38091262     0.35900
C3387       C  0.36997018  0.78263926  0.38078441    -0.26300
C3388       C  0.40667806  0.81152684  0.37858120     0.02400
C3389       C  0.41177488  0.84785363  0.37652630     0.27200
C3390       C  0.37980377  0.85462317  0.37671593    -0.25400
N3391       N  0.29982757  0.75798876  0.38283601    -0.82800
H3392       H  0.36621892  0.75458105  0.38226399     0.13000
C3393       C  0.43948623  0.80315094  0.37830449     0.02300
N3394       N  0.44945144  0.87765000  0.37425859    -0.81300
H3395       H  0.38384419  0.88264992  0.37516135     0.17800
C3396       C  0.45362255  0.79990800  0.37253516    -0.26200
C3397       C  0.48617489  0.79433561  0.37203991     0.35800
C3398       C  0.50551762  0.79283887  0.37745421    -0.20200
C3399       C  0.49007946  0.79426118  0.38323797    -0.25500
C3400       C  0.45719580  0.79937672  0.38371421     0.27200
H3401       H  0.43922773  0.80195633  0.36840179     0.13000
N3402       N  0.49957627  0.79020226  0.36606461    -0.82700
H3403       H  0.50454106  0.79284983  0.38740698     0.17800
N3404       N  0.44222413  0.80162709  0.38965690    -0.81300
H3405       H  0.48234450  0.79235261  0.36257809     0.33500
H3406       H  0.49551413  0.76179455  0.36579594     0.37900
H3407       H  0.45847630  0.79816070  0.39317328     0.33400
H3408       H  0.44629764  0.82994102  0.39013455     0.30100
H3409       H  0.44833417  0.90262093  0.37288974     0.33400
H3410       H  0.46941924  0.88629465  0.37791862     0.30100
H3411       H  0.28137730  0.74945864  0.37898083     0.38000
H3412       H  0.30133688  0.73322438  0.38420639     0.33500
C3413       C  0.30812820  0.81436236  0.29382798    -0.20300
C3414       C  0.34456139  0.84976835  0.29362175     0.35900
C3415       C  0.37963562  0.84839561  0.29329952    -0.26300
C3416       C  0.37913254  0.81237402  0.29307102     0.02400
C3417       C  0.34273292  0.77694050  0.29355804     0.27200
C3418       C  0.30763611  0.77836696  0.29402776    -0.25400
N3419       N  0.34569146  0.88696293  0.29363859    -0.82800
H3420       H  0.40757174  0.87560426  0.29309159     0.13000
C3421       C  0.41693376  0.81253294  0.29216831     0.02300
N3422       N  0.34137711  0.73966776  0.29330943    -0.81300
H3423       H  0.27961984  0.75119951  0.29414201     0.17800
C3424       C  0.42837890  0.79321037  0.29641351    -0.26200
C3425       C  0.46447346  0.79390521  0.29582712     0.35800
C3426       C  0.49042034  0.81526501  0.29091588    -0.20200
C3427       C  0.47832453  0.83392860  0.28661117    -0.25500
C3428       C  0.44196013  0.83257886  0.28715706     0.27200
H3429       H  0.40911865  0.77773008  0.30024907     0.13000
N3430       N  0.47453437  0.77288227  0.30021139    -0.82700
H3431       H  0.49744367  0.85002614  0.28279741     0.17800
N3432       N  0.43030170  0.85151462  0.28262410    -0.81300
H3433       H  0.45288686  0.75990002  0.30361303     0.33500
H3434       H  0.47486583  0.74980258  0.29785592     0.37900
H3435       H  0.45206520  0.86521614  0.27925737     0.33400
H3436       H  0.40535415  0.82960666  0.28038106     0.30100
H3437       H  0.31241028  0.71652287  0.29372046     0.33400
H3438       H  0.35115628  0.73711253  0.28894224     0.30100
H3439       H  0.33433662  0.88953345  0.29786246     0.38000
H3440       H  0.37472164  0.91019500  0.29342269     0.33500
C3441       C  0.81581045  0.82997543  0.28476180    -0.20300
C3442       C  0.84556700  0.84431402  0.28929519     0.35900
C3443       C  0.87837140  0.83938687  0.28850870    -0.26300
C3444       C  0.88197739  0.82034463  0.28329721     0.02400
C3445       C  0.85259437  0.80643085  0.27871000     0.27200
C3446       C  0.81979594  0.81166018  0.27946308    -0.25400
N3447       N  0.84234480  0.86393984  0.29467318    -0.82800
H3448       H  0.90108361  0.84999100  0.29201311     0.13000
C3449       C  0.91616592  0.81406298  0.28289505     0.02300
N3450       N  0.85595975  0.78657217  0.27337827    -0.81300
H3451       H  0.79681163  0.80053363  0.27600021     0.17800
C3452       C  0.91145301  0.77755174  0.28462072    -0.26200
C3453       C  0.94394444  0.77162910  0.28501138     0.35800
C3454       C  0.98206660  0.80300756  0.28361632    -0.20200
C3455       C  0.98632126  0.83917189  0.28165460    -0.25500
C3456       C  0.95379653  0.84506654  0.28132646     0.27200
H3457       H  0.88236642  0.75388392  0.28582375     0.13000
N3458       N  0.93830855  0.73397362  0.28686232    -0.82700
H3459       H  0.01534346  0.86343470  0.28058529     0.17800
N3460       N  0.95888894  0.88267820  0.27957538    -0.81300
H3461       H  0.90864029  0.71435515  0.28779117     0.33500
H3462       H  0.94597279  0.72234798  0.28312428     0.37900
H3463       H  0.98846987  0.90256578  0.27863136     0.33400
H3464       H  0.94349644  0.87881477  0.27545960     0.30100
H3465       H  0.83168676  0.77771014  0.27047611     0.33400
H3466       H  0.88065364  0.80690059  0.27089611     0.30100
H3467       H  0.84329291  0.88978695  0.29320524     0.38000
H3468       H  0.86652345  0.87247525  0.29758293     0.33500
C3469       C  0.15524662  0.81207179  0.31698790    -0.20300
C3470       C  0.17611808  0.80026633  0.32092624     0.35900
C3471       C  0.16882597  0.79751096  0.32732370    -0.26300
C3472       C  0.14061081  0.80558926  0.32986740     0.02400
C3473       C  0.11905581  0.81635301  0.32589241     0.27200
C3474       C  0.12714467  0.82021465  0.31954156    -0.25400
N3475       N  0.20509425  0.79184979  0.31844883    -0.82800
H3476       H  0.18579398  0.78972652  0.33035998     0.13000
C3477       C  0.13526944  0.80450763  0.33670577     0.02300
N3478       N  0.08849830  0.82263016  0.32830650    -0.81300
H3479       H  0.11047883  0.82855902  0.31653236     0.17800
C3480       C  0.13735032  0.83719988  0.33969727    -0.26200
C3481       C  0.13445242  0.83850335  0.34614743     0.35800
C3482       C  0.13157889  0.80713286  0.34979384    -0.20200
C3483       C  0.12806009  0.77375522  0.34674987    -0.25500
C3484       C  0.12911918  0.77184085  0.34027136     0.27200
H3485       H  0.14195344  0.86231749  0.33697943     0.13000
N3486       N  0.13563980  0.87221944  0.34896397    -0.82700
H3487       H  0.12511831  0.74913977  0.34943175     0.17800
N3488       N  0.12414084  0.73689250  0.33729978    -0.81300
H3489       H  0.13969379  0.89329604  0.34565456     0.33500
H3490       H  0.10799793  0.86280824  0.35092303     0.37900
H3491       H  0.12003985  0.71556931  0.34056504     0.33400
H3492       H  0.09826525  0.72517603  0.33470122     0.30100
H3493       H  0.07550182  0.83043577  0.32478477     0.33400
H3494       H  0.06651723  0.79580312  0.33008156     0.30100
H3495       H  0.22789150  0.81801709  0.31662651     0.38000
H3496       H  0.21743274  0.78313131  0.32194896     0.33500
C3497       C  0.94549202  0.70157271  0.23505060    -0.20300
C3498       C  0.94900366  0.73133492  0.23913313     0.35900
C3499       C  0.97450956  0.74189843  0.24421984    -0.26300
C3500       C  0.99672182  0.72354863  0.24538373     0.02400
C3501       C  0.99317576  0.69368885  0.24134910     0.27200
C3502       C  0.96755681  0.68294937  0.23625758    -0.25400
N3503       N  0.92596312  0.75011164  0.23822198    -0.82800
H3504       H  0.97636641  0.76405349  0.24740129     0.13000
C3505       C  0.02207650  0.73491479  0.25100453     0.02300
N3506       N  0.01581541  0.67459678  0.24240797    -0.81300
H3507       H  0.96538194  0.66031541  0.23315281     0.17800
C3508       C  0.01709581  0.70575626  0.25524836    -0.26200
C3509       C  0.03803491  0.71543980  0.26084373     0.35800
C3510       C  0.06451602  0.75532513  0.26226972    -0.20200
C3511       C  0.06993785  0.78447972  0.25798125    -0.25500
C3512       C  0.04937831  0.77469805  0.25234484     0.27200
H3513       H  0.99570423  0.67530452  0.25428696     0.13000
N3514       N  0.03132483  0.68496205  0.26517309    -0.82700
H3515       H  0.09038599  0.81507319  0.25903301     0.17800
N3516       N  0.05595395  0.80501362  0.24798811    -0.81300
H3517       H  0.01137857  0.65726589  0.26338978     0.33500
H3518       H  0.01806643  0.68895677  0.26907543     0.37900
H3519       H  0.07673168  0.83268253  0.24967785     0.33400
H3520       H  0.06803251  0.80019825  0.24401393     0.30100
H3521       H  0.00969122  0.65317512  0.23904860     0.33400
H3522       H  0.04552749  0.69579491  0.24193523     0.30100
H3523       H  0.89655784  0.72885124  0.23897721     0.38000
H3524       H  0.93298895  0.77215078  0.24150670     0.33500
C3525       C  0.82036794  0.96959695  0.37286396    -0.20300
C3526       C  0.85800726  0.97407426  0.37188130     0.35900
C3527       C  0.89163976  0.01169610  0.37246841    -0.26300
C3528       C  0.88815918  0.04464779  0.37395152     0.02400
C3529       C  0.85066685  0.04042909  0.37471742     0.27200
C3530       C  0.81719187  0.00304595  0.37413935    -0.25400
N3531       N  0.86212265  0.94028674  0.37067286    -0.82800
H3532       H  0.92068506  0.01529463  0.37188496     0.13000
C3533       C  0.92382521  0.08351299  0.37487387     0.02300
N3534       N  0.84688427  0.07404654  0.37625233    -0.81300
H3535       H  0.78839190  0.99971206  0.37491413     0.17800
C3536       C  0.93459059  0.11233973  0.37031525    -0.26200
C3537       C  0.96722283  0.15014765  0.37112148     0.35800
C3538       C  0.98964225  0.15919989  0.37660295    -0.20200
C3539       C  0.97813432  0.13055988  0.38124052    -0.25500
C3540       C  0.94534822  0.09270324  0.38042325     0.27200
H3541       H  0.91729858  0.10527509  0.36612635     0.13000
N3542       N  0.97756560  0.17950538  0.36641318    -0.82700
H3543       H  0.99536002  0.13741160  0.38543262     0.17800
N3544       N  0.93383401  0.06347897  0.38518028    -0.81300
H3545       H  0.95828685  0.16807566  0.36267039     0.33500
H3546       H  0.97393825  0.20208702  0.36826894     0.37900
H3547       H  0.95281656  0.07482389  0.38895857     0.33400
H3548       H  0.90600075  0.05690945  0.38674422     0.30100
H3549       H  0.81725176  0.06600848  0.37665678     0.33400
H3550       H  0.85949260  0.08395834  0.38060176     0.30100
H3551       H  0.85025292  0.92963338  0.36630973     0.38000
H3552       H  0.89184324  0.94841406  0.37041941     0.33500
C3553       C  0.50563743  0.64095452  0.37946277    -0.20300
C3554       C  0.49775002  0.60296696  0.37772538     0.35900
C3555       C  0.45860217  0.57174406  0.37761092    -0.26300
C3556       C  0.42730245  0.57761452  0.37924816     0.02400
C3557       C  0.43520229  0.61528502  0.38110833     0.27200
C3558       C  0.47425048  0.64646416  0.38123197    -0.25400
N3559       N  0.52942229  0.59611910  0.37615417    -0.82800
H3560       H  0.45238716  0.54258461  0.37626880     0.13000
C3561       C  0.38634335  0.54405537  0.37897697     0.02300
N3562       N  0.40343908  0.62187105  0.38273911    -0.81300
H3563       H  0.48006029  0.67557141  0.38252407     0.17800
C3564       C  0.36394012  0.53131237  0.38438360    -0.26200
C3565       C  0.32548643  0.49931914  0.38435733     0.35800
C3566       C  0.30832276  0.47917471  0.37874485    -0.20200
C3567       C  0.33106282  0.49262789  0.37331828    -0.25500
C3568       C  0.36968964  0.52472868  0.37337866     0.27200
H3569       H  0.37676154  0.54603985  0.38870576     0.13000
N3570       N  0.30548931  0.48768164  0.39015471    -0.82700
H3571       H  0.31877114  0.47806100  0.36897079     0.17800
N3572       N  0.39208669  0.53790916  0.36776858    -0.81300
H3573       H  0.28018564  0.49010631  0.38994581     0.33500
H3574       H  0.29806393  0.45861148  0.39105139     0.37900
H3575       H  0.37572187  0.52047152  0.36404643     0.33400
H3576       H  0.39747889  0.56636944  0.36687517     0.30100
H3577       H  0.41422038  0.65119950  0.38401661     0.33400
H3578       H  0.38631248  0.61705840  0.37879217     0.30100
H3579       H  0.54650692  0.60121482  0.38011532     0.38000
H3580       H  0.51855693  0.56666487  0.37494875     0.33500
C3581       C  0.17475107  0.99264369  0.37610553    -0.20300
C3582       C  0.20392724  0.02967293  0.37833239     0.35900
C3583       C  0.19796755  0.06212468  0.37788197    -0.26300
C3584       C  0.16387724  0.05852420  0.37514297     0.02400
C3585       C  0.13489922  0.02172806  0.37286748     0.27200
C3586       C  0.14075921  0.98927429  0.37331949    -0.25400
N3587       N  0.23981151  0.03442929  0.38090585    -0.82800
H3588       H  0.22015611  0.09053856  0.37962617     0.13000
C3589       C  0.15838526  0.09333292  0.37491594     0.02300
N3590       N  0.09930607  0.01733135  0.37023039    -0.81300
H3591       H  0.11818599  0.96094182  0.37160556     0.17800
C3592       C  0.15853783  0.11065792  0.36923195    -0.26200
C3593       C  0.15529291  0.14491802  0.36895130     0.35800
C3594       C  0.15247510  0.16230963  0.37448739    -0.20200
C3595       C  0.15109950  0.14397594  0.38013465    -0.25500
C3596       C  0.15364055  0.10961189  0.38040025     0.27200
H3597       H  0.16189439  0.09776913  0.36502118     0.13000
N3598       N  0.15666164  0.16289331  0.36311618    -0.82700
H3599       H  0.14820035  0.15673566  0.38439645     0.17800
N3600       N  0.15161808  0.09119028  0.38622586    -0.81300
H3601       H  0.16073853  0.14743971  0.35953596     0.33500
H3602       H  0.12908334  0.16017837  0.36238301     0.37900
H3603       H  0.14826538  0.10693895  0.38983512     0.33400
H3604       H  0.12623474  0.06345361  0.38619004     0.30100
H3605       H  0.08101653  0.98839556  0.36874691     0.33400
H3606       H  0.08410835  0.02247202  0.37373197     0.30100
H3607       H  0.25477194  0.02914533  0.37738124     0.38000
H3608       H  0.25813122  0.06347213  0.38233491     0.33500
C3609       C  0.15669636  0.48603093  0.38055903    -0.20300
C3610       C  0.19425815  0.51807803  0.38206101     0.35900
C3611       C  0.20027788  0.55645489  0.38196269    -0.26300
C3612       C  0.16982577  0.56349487  0.38035377     0.02400
C3613       C  0.13223800  0.53169576  0.37895283     0.27200
C3614       C  0.12609825  0.49323604  0.37902282    -0.25400
N3615       N  0.22648657  0.51176950  0.38349017    -0.82800
H3616       H  0.22915827  0.58117336  0.38297315     0.13000
C3617       C  0.17829022  0.60454296  0.37983618     0.02300
N3618       N  0.10059008  0.53872559  0.37745143    -0.81300
H3619       H  0.09728758  0.46877420  0.37790012     0.17800
C3620       C  0.17695405  0.61909864  0.37401141    -0.26200
C3621       C  0.18401997  0.65760482  0.37327007     0.35800
C3622       C  0.19175105  0.68189469  0.37852925    -0.20200
C3623       C  0.19499359  0.66766888  0.38433255    -0.25500
C3624       C  0.18813818  0.62913330  0.38503747     0.27200
H3625       H  0.17040416  0.60020888  0.37001859     0.13000
N3626       N  0.18331090  0.67192445  0.36719507    -0.82700
H3627       H  0.20135071  0.68604553  0.38838070     0.17800
N3628       N  0.19013566  0.61449222  0.39102314    -0.81300
H3629       H  0.17638544  0.65005652  0.36388187     0.33500
H3630       H  0.21180387  0.69456271  0.36620248     0.37900
H3631       H  0.19783164  0.63630629  0.39437238     0.33400
H3632       H  0.16189120  0.59180535  0.39213501     0.30100
H3633       H  0.07484633  0.51222462  0.37651567     0.33400
H3634       H  0.09487893  0.55065710  0.38136106     0.30100
H3635       H  0.23304247  0.50117645  0.37950442     0.38000
H3636       H  0.25177816  0.53832341  0.38458219     0.33500
C3637       C  0.01228140  0.16229108  0.28581000    -0.20300
C3638       C  0.00733571  0.12600944  0.28369214     0.35900
C3639       C  0.96908877  0.09331057  0.28312960    -0.26300
C3640       C  0.93590718  0.09614176  0.28472300     0.02400
C3641       C  0.94089527  0.13260371  0.28670046     0.27200
C3642       C  0.97893824  0.16518830  0.28723307    -0.25400
N3643       N  0.04108938  0.12205563  0.28237977    -0.82800
H3644       H  0.96517906  0.06513734  0.28168501     0.13000
C3645       C  0.89627465  0.06028815  0.28483759     0.02300
N3646       N  0.90717718  0.13617199  0.28824138    -0.81300
H3647       H  0.98261516  0.19306944  0.28879533     0.17800
C3648       C  0.87650555  0.04828032  0.29048695    -0.26200
C3649       C  0.83827830  0.01585084  0.29089391     0.35800
C3650       C  0.81933933  0.99418173  0.28549846    -0.20200
C3651       C  0.83966809  0.00576277  0.27984975    -0.25500
C3652       C  0.87783119  0.03875472  0.27945810     0.27200
H3653       H  0.89103689  0.06464402  0.29461998     0.13000
N3654       N  0.81937644  0.00431780  0.29681446    -0.82700
H3655       H  0.82555803  0.98926257  0.27570935     0.17800
N3656       N  0.89775494  0.05063869  0.27362617    -0.81300
H3657       H  0.83903378  0.02048749  0.30034108     0.33500
H3658       H  0.79748335  0.01207800  0.29692204     0.37900
H3659       H  0.88025163  0.03158511  0.27012697     0.33400
H3660       H  0.90157183  0.07833286  0.27256996     0.30100
H3661       H  0.91583075  0.16480615  0.28967682     0.33400
H3662       H  0.89067584  0.13120505  0.28421682     0.30100
H3663       H  0.05622509  0.12602826  0.28652707     0.38000
H3664       H  0.03237623  0.09353138  0.28088049     0.33500
C3665       C  0.51158290  0.66072965  0.29340017    -0.20300
C3666       C  0.51101699  0.62598640  0.29146993     0.35900
C3667       C  0.47553543  0.59002359  0.29160607    -0.26300
C3668       C  0.44067887  0.58794262  0.29363469     0.02400
C3669       C  0.44143535  0.62207810  0.29585432     0.27200
C3670       C  0.47707803  0.65811164  0.29579841    -0.25400
N3671       N  0.54632895  0.62740549  0.28930041    -0.82800
H3672       H  0.47476057  0.56351674  0.28998197     0.13000
C3673       C  0.40331217  0.55018636  0.29301966     0.02300
N3674       N  0.40573308  0.62030249  0.29789639    -0.81300
H3675       H  0.47735413  0.68460187  0.29728751     0.17800
C3676       C  0.38241059  0.53013673  0.29830152    -0.26200
C3677       C  0.34740334  0.49366925  0.29784537     0.35800
C3678       C  0.33267426  0.47731784  0.29194269    -0.20200
C3679       C  0.35401382  0.49766332  0.28667461    -0.25500
C3680       C  0.38903758  0.53389484  0.28715322     0.27200
H3681       H  0.39387889  0.54272793  0.30279579     0.13000
N3682       N  0.32729562  0.47306596  0.30335412    -0.82700
H3683       H  0.34296861  0.48564972  0.28213893     0.17800
N3684       N  0.41008852  0.55449965  0.28170005    -0.81300
H3685       H  0.34176312  0.48937064  0.30727948     0.33500
H3686       H  0.32867544  0.44715548  0.30355786     0.37900
H3687       H  0.39587343  0.53847170  0.27774197     0.33400
H3688       H  0.40944000  0.58079123  0.28147548     0.30100
H3689       H  0.41133070  0.64798182  0.29938398     0.33400
H3690       H  0.38703031  0.61294999  0.29408476     0.30100
H3691       H  0.56607418  0.63628400  0.29299241     0.38000
H3692       H  0.54075096  0.59940160  0.28800772     0.33500
C3693       C  0.17514065  0.15638785  0.28672254    -0.20300
C3694       C  0.20498062  0.14909793  0.28886438     0.35900
C3695       C  0.19866746  0.11050408  0.28870311    -0.26300
C3696       C  0.16350881  0.07942407  0.28638589     0.02400
C3697       C  0.13416597  0.08664590  0.28411573     0.27200
C3698       C  0.14039174  0.12506777  0.28426368    -0.25400
N3699       N  0.24156593  0.18076597  0.29114058    -0.82800
H3700       H  0.22109278  0.10450711  0.29041650     0.13000
C3701       C  0.15702746  0.03904661  0.28655812     0.02300
N3702       N  0.09770592  0.05469315  0.28184677    -0.81300
H3703       H  0.11746004  0.13034546  0.28258973     0.17800
C3704       C  0.13934980  0.01590406  0.29177681    -0.26200
C3705       C  0.13246237  0.97726640  0.29213601     0.35800
C3706       C  0.14301463  0.96147611  0.28711635    -0.20200
C3707       C  0.16027724  0.98460950  0.28186068    -0.25500
C3708       C  0.16792002  0.02356845  0.28156949     0.27200
H3709       H  0.13110724  0.02817820  0.29558550     0.13000
N3710       N  0.11483837  0.95403869  0.29756674    -0.82700
H3711       H  0.16908246  0.97270616  0.27807062     0.17800
N3712       N  0.18774462  0.04787179  0.27632919    -0.81300
H3713       H  0.10944683  0.97022642  0.30086169     0.33500
H3714       H  0.08748115  0.93040556  0.29630106     0.37900
H3715       H  0.19473051  0.03234640  0.27313433     0.33400
H3716       H  0.16818154  0.05465208  0.27413006     0.30100
H3717       H  0.07883714  0.06485916  0.28046037     0.33400
H3718       H  0.10394211  0.04352929  0.27789988     0.30100
H3719       H  0.25572026  0.19985425  0.28745411     0.38000
H3720       H  0.26008582  0.17027362  0.29257675     0.33500
C3721       C  0.15822260  0.47084479  0.29231402    -0.20300
C3722       C  0.12883500  0.47448313  0.28909344     0.35900
C3723       C  0.12998710  0.51060938  0.28893102    -0.26300
C3724       C  0.15936853  0.54332726  0.29202477     0.02400
C3725       C  0.18727744  0.53958037  0.29561423     0.27200
C3726       C  0.18653557  0.50325647  0.29571585    -0.25400
N3727       N  0.09748820  0.44147961  0.28598663    -0.82800
H3728       H  0.10774031  0.51319057  0.28634178     0.13000
C3729       C  0.15958376  0.58093020  0.29144981     0.02300
N3730       N  0.21647575  0.57273930  0.29903571    -0.81300
H3731       H  0.20893199  0.50072909  0.29826028     0.17800
C3732       C  0.14888138  0.59536516  0.29653566    -0.26200
C3733       C  0.14382807  0.62819674  0.29597222     0.35800
C3734       C  0.15090694  0.64773280  0.29021328    -0.20200
C3735       C  0.16187234  0.63319555  0.28513331    -0.25500
C3736       C  0.16635738  0.60000493  0.28570041     0.27200
H3737       H  0.14299763  0.57999389  0.30090138     0.13000
N3738       N  0.13040679  0.64094825  0.30118084    -0.82700
H3739       H  0.16766805  0.64817659  0.28073451     0.17800
N3740       N  0.17775819  0.58547428  0.28047143    -0.81300
H3741       H  0.12697088  0.62364088  0.30505337     0.33500
H3742       H  0.10248059  0.63645201  0.30010262     0.37900
H3743       H  0.18136806  0.60263404  0.27657253     0.33400
H3744       H  0.20530730  0.58867410  0.28144490     0.30100
H3745       H  0.23474028  0.56509724  0.30145320     0.33400
H3746       H  0.23430577  0.59446138  0.29586581     0.12100
H3747       H  0.07082606  0.43667508  0.28783060     0.38000
H3748       H  0.09829178  0.44872346  0.28132921     0.33500
C3749       C  0.16442031  0.30617060  0.34948876    -0.20300
C3750       C  0.15152936  0.27188591  0.34588194     0.35900
C3751       C  0.14852740  0.27409565  0.33942540    -0.26300
C3752       C  0.15795053  0.30976332  0.33654008     0.02400
C3753       C  0.17058655  0.34389475  0.34012263     0.27200
C3754       C  0.17397045  0.34182254  0.34653766    -0.25400
N3755       N  0.14188257  0.23517266  0.34876572    -0.82800
H3756       H  0.13884186  0.24798621  0.33662451     0.13000
C3757       C  0.15494499  0.31150514  0.32974771     0.02300
N3758       N  0.17885914  0.38027192  0.33724109    -0.81300
H3759       H  0.18306603  0.36809464  0.34927294     0.17800
C3760       C  0.11938872  0.30434720  0.32707927    -0.26200
C3761       C  0.11635179  0.30831549  0.32067302     0.35800
C3762       C  0.14986840  0.32047796  0.31691066    -0.20200
C3763       C  0.18522704  0.32709429  0.31961043    -0.25500
C3764       C  0.18796718  0.32224426  0.32597343     0.27200
H3765       H  0.09410050  0.29600000  0.33001892     0.13000
N3766       N  0.07962860  0.30052547  0.31799868    -0.82700
H3767       H  0.21067377  0.33531537  0.31671610     0.17800
N3768       N  0.22389441  0.32742759  0.32860592    -0.81300
H3769       H  0.05791520  0.29170732  0.32139254     0.33500
H3770       H  0.08363456  0.32697147  0.31618634     0.37900
H3771       H  0.24504214  0.33417767  0.32517482     0.33400
H3772       H  0.23513547  0.35171663  0.33155296     0.30100
H3773       H  0.18674924  0.40238737  0.34054304     0.33400
H3774       H  0.20332939  0.38932452  0.33438480     0.30100
H3775       H  0.16765627  0.23840944  0.35073674     0.38000
H3776       H  0.13278261  0.21285119  0.34546931     0.33500
C3777       C  0.29344334  0.22050301  0.23732533    -0.20300
C3778       C  0.26984252  0.19245164  0.24182191     0.35900
C3779       C  0.25913619  0.20490076  0.24719277    -0.26300
C3780       C  0.27123135  0.24469531  0.24817753     0.02400
C3781       C  0.29533992  0.27282901  0.24375142     0.27200
C3782       C  0.30662967  0.26051096  0.23841497    -0.25400
N3783       N  0.25700805  0.15145611  0.24094565    -0.82800
H3784       H  0.24112343  0.18341781  0.25064023     0.13000
C3785       C  0.25789992  0.25626871  0.25382997     0.02300
N3786       N  0.30729960  0.31362562  0.24461144    -0.81300
H3787       H  0.32454915  0.28210742  0.23497508     0.17800
C3788       C  0.28584198  0.28314715  0.25798014    -0.26200
C3789       C  0.27432715  0.29406913  0.26343923     0.35800
C3790       C  0.23382740  0.27811057  0.26474772    -0.20200
C3791       C  0.20593959  0.25108611  0.26057810    -0.25500
C3792       C  0.21751730  0.24016025  0.25513711     0.27200
H3793       H  0.31683034  0.29504980  0.25700732     0.13000
N3794       N  0.30365261  0.32050259  0.26771382    -0.82700
H3795       H  0.17486054  0.23874112  0.26152515     0.17800
N3796       N  0.18842301  0.21302045  0.25089769    -0.81300
H3797       H  0.33192793  0.32994056  0.26602019     0.33500
H3798       H  0.30079176  0.30465789  0.27174424     0.37900
H3799       H  0.16006152  0.20370716  0.25254175     0.33400
H3800       H  0.19139482  0.22816532  0.24678543     0.30100
H3801       H  0.32484402  0.33050566  0.24093538     0.33400
H3802       H  0.28193161  0.31601963  0.24452882     0.30100
H3803       H  0.28203494  0.14847107  0.24091258     0.38000
H3804       H  0.23973580  0.13474661  0.24465584     0.33500
C3805       C  0.04077177  0.41617887  0.43091844    -0.20300
C3806       C  0.01241312  0.39213447  0.42647952     0.35900
C3807       C  0.02463744  0.38070693  0.42115401    -0.26300
C3808       C  0.06446630  0.39319007  0.42014495     0.02400
C3809       C  0.09269993  0.41707287  0.42454889     0.27200
C3810       C  0.08060072  0.42834088  0.42987599    -0.25400
N3811       N  0.97156463  0.38001712  0.42731912    -0.82800
H3812       H  0.00315725  0.36253798  0.41771465     0.13000
C3813       C  0.07649135  0.38161136  0.41440784     0.02300
N3814       N  0.13354790  0.42954816  0.42360121    -0.81300
H3815       H  0.10244994  0.44628629  0.43328462     0.17800
C3816       C  0.10025394  0.41080164  0.41016890    -0.26200
C3817       C  0.11235942  0.40122267  0.40466487     0.35800
C3818       C  0.10112094  0.36144739  0.40344602    -0.20200
C3819       C  0.07712582  0.33227508  0.40770996    -0.25500
C3820       C  0.06470271  0.34199042  0.41318005     0.27200
H3821       H  0.10879717  0.44115838  0.41112428     0.13000
N3822       N  0.13507345  0.43163817  0.40025565    -0.82700
H3823       H  0.06828470  0.30181091  0.40679721     0.17800
N3824       N  0.04036480  0.31188179  0.41751715    -0.81300
H3825       H  0.14103655  0.45913634  0.40189820     0.33500
H3826       H  0.11776900  0.42604632  0.39630666     0.37900
H3827       H  0.03413766  0.28421391  0.41592061     0.33400
H3828       H  0.05652077  0.31708571  0.42158666     0.30100
H3829       H  0.15058619  0.44710248  0.42726704     0.33400
H3830       H  0.13633703  0.40440337  0.42361140     0.30100
H3831       H  0.96901976  0.40529074  0.42716186     0.38000
H3832       H  0.95469094  0.36209795  0.42367095     0.33500
C3833       C  0.00041239  0.49753439  0.51615704    -0.20300
C3834       C  0.96343705  0.48654252  0.51344044     0.35900
C3835       C  0.96031191  0.48758249  0.50701367    -0.26300
C3836       C  0.99320623  0.49993944  0.50321598     0.02400
C3837       C  0.03035444  0.51212251  0.50589418     0.27200
C3838       C  0.03361336  0.51097333  0.51234830    -0.25400
N3839       N  0.92928219  0.47523426  0.51721064    -0.82800
H3840       H  0.93206076  0.47919200  0.50493894     0.13000
C3841       C  0.98801121  0.50002005  0.49644108     0.02300
N3842       N  0.06446461  0.52517741  0.50204576    -0.81300
H3843       H  0.06201892  0.51987845  0.51440306     0.17800
C3844       C  0.00867067  0.53540496  0.49316988    -0.26200
C3845       C  0.00501710  0.53652980  0.48673735     0.35800
C3846       C  0.98049600  0.50131011  0.48349426    -0.20200
C3847       C  0.95826134  0.46628250  0.48684076    -0.25500
C3848       C  0.96196655  0.46520589  0.49326473     0.27200
H3849       H  0.02779733  0.56225603  0.49565762     0.13000
N3850       N  0.02630624  0.57324259  0.48349366    -0.82700
H3851       H  0.93945867  0.43908538  0.48441561     0.17800
N3852       N  0.94026112  0.42868113  0.49655463    -0.81300
H3853       H  0.04311245  0.59621284  0.48655190     0.33500
H3854       H  0.00559439  0.57938463  0.48154237     0.37900
H3855       H  0.92228582  0.40586636  0.49354675     0.33400
H3856       H  0.96056895  0.42156867  0.49838838     0.30100
H3857       H  0.08949960  0.53323015  0.50472874     0.33400
H3858       H  0.06023202  0.50129752  0.49934515     0.30100
H3859       H  0.90445554  0.46742345  0.51448616     0.38000
H3860       H  0.93426313  0.49996319  0.51974685     0.33500
C3861       C  0.15929797  0.63080184  0.45474584    -0.20300
C3862       C  0.17429450  0.64971666  0.44902805     0.35900
C3863       C  0.20661866  0.68818412  0.44893794    -0.26300
C3864       C  0.22343039  0.70845640  0.45442584     0.02400
C3865       C  0.20861982  0.68991148  0.46013329     0.27200
C3866       C  0.17678982  0.65123731  0.46024072    -0.25400
N3867       N  0.15562432  0.63067805  0.44335309    -0.82800
H3868       H  0.21812866  0.70293623  0.44457308     0.13000
C3869       C  0.25679787  0.74916826  0.45413579     0.02300
N3870       N  0.22595556  0.71053461  0.46578214    -0.81300
H3871       H  0.16545170  0.63704517  0.46464758     0.17800
C3872       C  0.25131586  0.78036225  0.45596206    -0.26200
C3873       C  0.28279938  0.81935099  0.45595495     0.35800
C3874       C  0.32054739  0.82702299  0.45407243    -0.20200
C3875       C  0.32545037  0.79556245  0.45210537    -0.25500
C3876       C  0.29401509  0.75675138  0.45214015     0.27200
H3877       H  0.22238402  0.77413521  0.45744175     0.13000
N3878       N  0.27618750  0.85094752  0.45769791    -0.82700
H3879       H  0.35426156  0.80108653  0.45069319     0.17800
N3880       N  0.29979050  0.72487984  0.45024233    -0.81300
H3881       H  0.24611095  0.84057223  0.45825902     0.33500
H3882       H  0.28877167  0.86083473  0.46204473     0.37900
H3883       H  0.32891057  0.73546428  0.44886650     0.33400
H3884       H  0.29510953  0.70701343  0.45409026     0.30100
H3885       H  0.21140969  0.69287410  0.46958993     0.33400
H3886       H  0.25487855  0.71596047  0.46594392     0.30100
H3887       H  0.12783767  0.62821280  0.44331155     0.38000
H3888       H  0.17084551  0.64827533  0.43957592     0.33500
C3889       C  0.83509574  0.31713686  0.45732790    -0.20300
C3890       C  0.80400728  0.32053132  0.46003202     0.35900
C3891       C  0.76659724  0.28702151  0.46059873    -0.26300
C3892       C  0.75951846  0.25040928  0.45848376     0.02400
C3893       C  0.79038119  0.24669586  0.45586520     0.27200
C3894       C  0.82786764  0.28022250  0.45525158    -0.25400
N3895       N  0.81028314  0.35814072  0.46207077    -0.82800
H3896       H  0.74257615  0.28955745  0.46256823     0.13000
C3897       C  0.71916002  0.21636541  0.45872862     0.02300
N3898       N  0.78340346  0.20877300  0.45387920    -0.81300
H3899       H  0.85166495  0.27742453  0.45325661     0.17800
C3900       C  0.69908691  0.20127045  0.45317898    -0.26200
C3901       C  0.66220902  0.16718076  0.45310073     0.35800
C3902       C  0.64481182  0.14768075  0.45867698    -0.20200
C3903       C  0.66384371  0.16409403  0.46428460    -0.25500
C3904       C  0.70123844  0.19826611  0.46435545     0.27200
H3905       H  0.71249299  0.21569163  0.44886493     0.13000
N3906       N  0.64242578  0.15241715  0.44733154    -0.82700
H3907       H  0.65035243  0.14936211  0.46857283     0.17800
N3908       N  0.72153753  0.21409062  0.47007533    -0.81300
H3909       H  0.63858972  0.17433729  0.44526348     0.33500
H3910       H  0.66063481  0.14691236  0.44448286     0.37900
H3911       H  0.70440364  0.19727379  0.47378818     0.33400
H3912       H  0.74684636  0.21158973  0.47005254     0.30100
H3913       H  0.80911353  0.21094527  0.45207364     0.33400
H3914       H  0.77613304  0.19081117  0.45778192     0.30100
H3915       H  0.81662990  0.37606889  0.45818154     0.38000
H3916       H  0.78463136  0.35542339  0.46400311     0.33500
C3917       C  0.39497002  0.94933557  0.43063250    -0.20300
C3918       C  0.40190375  0.97815042  0.42611696     0.35900
C3919       C  0.37899408  0.96719265  0.42069639    -0.26300
C3920       C  0.34941111  0.92807092  0.41966363     0.02400
C3921       C  0.34290616  0.89926201  0.42414047     0.27200
C3922       C  0.36591060  0.91011430  0.42952330    -0.25400
N3923       N  0.43249341  0.01827024  0.42699736    -0.82800
H3924       H  0.38464013  0.98916133  0.41720876     0.13000
C3925       C  0.32643147  0.91704961  0.41378576     0.02300
N3926       N  0.31248872  0.85908433  0.42324213    -0.81300
H3927       H  0.36025501  0.88787011  0.43296284     0.17800
C3928       C  0.32562900  0.88719012  0.41014812    -0.26200
C3929       C  0.30308513  0.87401544  0.40472775     0.35800
C3930       C  0.28123085  0.89194637  0.40271833    -0.20200
C3931       C  0.28284711  0.92266488  0.40632639    -0.25500
C3932       C  0.30497379  0.93520485  0.41183771     0.27200
H3933       H  0.34259514  0.87368921  0.41159379     0.13000
N3934       N  0.30302105  0.84277814  0.40125117    -0.82700
H3935       H  0.26649122  0.93680096  0.40488260     0.17800
N3936       N  0.30550217  0.96608639  0.41547874    -0.81300
H3937       H  0.32362598  0.83585881  0.40301611     0.33500
H3938       H  0.27553776  0.81762485  0.40189317     0.37900
H3939       H  0.28834250  0.97646046  0.41341566     0.33400
H3940       H  0.29240721  0.95398843  0.41972217     0.30100
H3941       H  0.31164716  0.84151367  0.42692935     0.33400
H3942       H  0.28553567  0.85844837  0.42323133     0.30100
H3943       H  0.45934988  0.01868950  0.42703113     0.38000
H3944       H  0.43353729  0.03574346  0.42328250     0.33500
C3945       C  0.50869063  0.99320843  0.51656239    -0.20300
C3946       C  0.53607658  0.02998433  0.51400473     0.35900
C3947       C  0.54276730  0.03368215  0.50763331    -0.26300
C3948       C  0.52291502  0.00124354  0.50370978     0.02400
C3949       C  0.49669994  0.96397501  0.50626099     0.27200
C3950       C  0.49006660  0.96028524  0.51267675    -0.25400
N3951       N  0.55823331  0.06348074  0.51788904    -0.82800
H3952       H  0.56371134  0.06213271  0.50573330     0.13000
C3953       C  0.52926837  0.00702085  0.49693880     0.02300
N3954       N  0.47652505  0.93020369  0.50231852    -0.81300
H3955       H  0.46969850  0.93182954  0.51463328     0.17800
C3956       C  0.54303095  0.98552890  0.49365808    -0.26200
C3957       C  0.54666034  0.98812498  0.48719671     0.35800
C3958       C  0.53650779  0.01310392  0.48392757    -0.20200
C3959       C  0.52517456  0.03647959  0.48728989    -0.25500
C3960       C  0.52098439  0.03335391  0.49373548     0.27200
H3961       H  0.55028323  0.96606114  0.49615262     0.13000
N3962       N  0.55979045  0.96481646  0.48395403    -0.82700
H3963       H  0.51709179  0.05551405  0.48485996     0.17800
N3964       N  0.50680105  0.05565875  0.49701382    -0.81300
H3965       H  0.56518396  0.94749674  0.48702361     0.33500
H3966       H  0.58670105  0.98417999  0.48188296     0.37900
H3967       H  0.50235172  0.07385655  0.49399641     0.33400
H3968       H  0.47925382  0.03572003  0.49884390     0.30100
H3969       H  0.45863012  0.90501779  0.50491260     0.33400
H3970       H  0.45784019  0.93490625  0.49945270     0.30100
H3971       H  0.55313067  0.08594850  0.51643435     0.38000
H3972       H  0.58810678  0.07307290  0.51726629     0.33500
C3973       C  0.16640788  0.66481103  0.54278433    -0.20300
C3974       C  0.18519578  0.69087504  0.54778815     0.35900
C3975       C  0.22216090  0.72459493  0.54688969    -0.26300
C3976       C  0.24111518  0.73298885  0.54115428     0.02400
C3977       C  0.22300065  0.70702010  0.53619227     0.27200
C3978       C  0.18612216  0.67314817  0.53706491    -0.25400
N3979       N  0.16701678  0.68329883  0.55376702    -0.82800
H3980       H  0.23645095  0.74460879  0.55070222     0.13000
C3981       C  0.27938507  0.76988377  0.54041826     0.02300
N3982       N  0.24172931  0.71560651  0.53025219    -0.81300
H3983       H  0.17248606  0.65357993  0.53318847     0.17800
C3984       C  0.31332692  0.76835592  0.53883709    -0.26200
C3985       C  0.35047498  0.80289103  0.53857616     0.35800
C3986       C  0.35346647  0.83950725  0.53996983    -0.20200
C3987       C  0.31915176  0.84082253  0.54133958    -0.25500
C3988       C  0.28226191  0.80655968  0.54155501     0.27200
H3989       H  0.31093889  0.74002738  0.53798450     0.13000
N3990       N  0.38514983  0.80053544  0.53726684    -0.82700
H3991       H  0.32127155  0.86883936  0.54238130     0.17800
N3992       N  0.24767770  0.80874239  0.54303073    -0.81300
H3993       H  0.37802890  0.77121036  0.53674293     0.33500
H3994       H  0.39593701  0.81401120  0.53299977     0.37900
H3995       H  0.25488722  0.83787709  0.54382477     0.33400
H3996       H  0.22929432  0.79914691  0.53916683     0.30100
H3997       H  0.22465843  0.69343021  0.52709147     0.33400
H3998       H  0.24309649  0.74135376  0.52862798     0.30100
H3999       H  0.16690525  0.65850817  0.55555972     0.38000
H4000       H  0.18382207  0.70640164  0.55680501     0.33500
C4001       C  0.84067196  0.35236990  0.54676011    -0.20300
C4002       C  0.82310035  0.33632273  0.55252329     0.35900
C4003       C  0.79072176  0.29789650  0.55283604    -0.26300
C4004       C  0.77595756  0.27466669  0.54752782     0.02400
C4005       C  0.79340122  0.29044426  0.54175089     0.27200
C4006       C  0.82501907  0.32905670  0.54144222    -0.25400
N4007       N  0.83871510  0.35821679  0.55809854    -0.82800
H4008       H  0.77740130  0.28586897  0.55727100     0.13000
C4009       C  0.74185136  0.23442658  0.54810145     0.02300
N4010       N  0.78000640  0.26835906  0.53610579    -0.81300
H4011       H  0.83774253  0.34070124  0.53696322     0.17800
C4012       C  0.70392772  0.22922719  0.54774178    -0.26200
C4013       C  0.67078284  0.19160783  0.54784526     0.35800
C4014       C  0.67550149  0.15823662  0.54837376    -0.20200
C4015       C  0.71352449  0.16345765  0.54874332    -0.25500
C4016       C  0.74687036  0.20136522  0.54861903     0.27200
H4017       H  0.70014065  0.25461525  0.54722132     0.13000
N4018       N  0.63287768  0.18814370  0.54709436    -0.82700
H4019       H  0.71714941  0.13787922  0.54906251     0.17800
N4020       N  0.78572826  0.20647723  0.54897414    -0.81300
H4021       H  0.61904109  0.17034041  0.54326449     0.33500
H4022       H  0.61599628  0.17482245  0.55101819     0.37900
H4023       H  0.78425924  0.17924108  0.54943089     0.33400
H4024       H  0.79980797  0.21832231  0.54477987     0.30100
H4025       H  0.80295384  0.26475017  0.53441135     0.33400
H4026       H  0.75619116  0.24016145  0.53681105     0.30100
H4027       H  0.84686445  0.34211417  0.56097946     0.38000
H4028       H  0.81630909  0.36067022  0.56029004     0.33500
C4029       C  0.67988764  0.50617530  0.45748308    -0.20300
C4030       C  0.71510328  0.53215013  0.45437268     0.35900
C4031       C  0.74831774  0.52787829  0.45514703    -0.26300
C4032       C  0.74693873  0.49795745  0.45887216     0.02400
C4033       C  0.71207642  0.47229309  0.46202436     0.27200
C4034       C  0.67909274  0.47694232  0.46135139    -0.25400
N4035       N  0.71712256  0.56261750  0.45044480    -0.82800
H4036       H  0.77534341  0.54751116  0.45273976     0.13000
C4037       C  0.78116451  0.49177781  0.45893868     0.02300
N4038       N  0.70994757  0.44092995  0.46574109    -0.81300
H4039       H  0.65214550  0.45666326  0.46371405     0.17800
C4040       C  0.80149887  0.49539039  0.46445572    -0.26200
C4041       C  0.83521899  0.49131699  0.46449948     0.35800
C4042       C  0.84803484  0.48276979  0.45893811    -0.20200
C4043       C  0.82704829  0.47845913  0.45347313    -0.25500
C4044       C  0.79375414  0.48273706  0.45341786     0.27200
H4045       H  0.79165022  0.50245823  0.46868257     0.13000
N4046       N  0.85715574  0.49718389  0.47008794    -0.82700
H4047       H  0.83680621  0.47177861  0.44919945     0.17800
N4048       N  0.77265351  0.47810636  0.44776757    -0.81300
H4049       H  0.84379420  0.50334620  0.47375575     0.33500
H4050       H  0.88481745  0.52217736  0.46948130     0.37900
H4051       H  0.78595439  0.47186248  0.44410093     0.33400
H4052       H  0.74451794  0.45365576  0.44827503     0.30100
H4053       H  0.68209404  0.42463618  0.46774122     0.33400
H4054       H  0.71339249  0.42170219  0.46281085     0.30100
H4055       H  0.71362085  0.58239699  0.45323038     0.38000
H4056       H  0.74492945  0.57852463  0.44841616     0.33500
C4057       C  0.36470900  0.51401216  0.45459485    -0.20300
C4058       C  0.34743039  0.51545903  0.44892949     0.35900
C4059       C  0.30914213  0.50991341  0.44890787    -0.26300
C4060       C  0.28803247  0.50381565  0.45439606     0.02400
C4061       C  0.30573260  0.50414571  0.46006145     0.27200
C4062       C  0.34365506  0.50893006  0.46010040    -0.25400
N4063       N  0.36798490  0.52118126  0.44319674    -0.82800
H4064       H  0.29535115  0.50971260  0.44456871     0.13000
C4065       C  0.24683065  0.49561289  0.45412817     0.02300
N4066       N  0.28497108  0.49938020  0.46574782    -0.81300
H4067       H  0.35673140  0.50847082  0.46447727     0.17800
C4068       C  0.21661511  0.45954007  0.45636475    -0.26200
C4069       C  0.17713819  0.45043920  0.45623133     0.35800
C4070       C  0.16775567  0.47832448  0.45387170    -0.20200
C4071       C  0.19807030  0.51404069  0.45148013    -0.25500
C4072       C  0.23747243  0.52299488  0.45159674     0.27200
H4073       H  0.22393582  0.43825777  0.45817949     0.13000
N4074       N  0.14664351  0.41288309  0.45841714    -0.82700
H4075       H  0.19120078  0.53564861  0.44966745     0.17800
N4076       N  0.26806815  0.55998332  0.44924345    -0.81300
H4077       H  0.15858881  0.39596720  0.46002862     0.33500
H4078       H  0.12888633  0.39777561  0.45464490     0.37900
H4079       H  0.25621221  0.57662462  0.44747346     0.33400
H4080       H  0.28602539  0.57588178  0.45295115     0.30100
H4081       H  0.30200753  0.50013657  0.46950924     0.33400
H4082       H  0.28078624  0.52356081  0.46622140     0.30100
H4083       H  0.39096740  0.55036400  0.44310491     0.38000
H4084       H  0.34981792  0.51820844  0.43946645     0.33500
C4085       C  0.51055110  0.34402284  0.45923644    -0.20300
C4086       C  0.54428478  0.33995922  0.45953606     0.35900
C4087       C  0.53995324  0.30216256  0.45905272    -0.26300
C4088       C  0.50266469  0.26868029  0.45832985     0.02400
C4089       C  0.46897058  0.27265717  0.45820508     0.27200
C4090       C  0.47326765  0.31027446  0.45864114    -0.25400
N4091       N  0.58276583  0.37418136  0.45997716    -0.82800
H4092       H  0.56569330  0.29874688  0.45917363     0.13000
C4093       C  0.49903474  0.22940873  0.45773976     0.02300
N4094       N  0.43061221  0.23849107  0.45753869    -0.81300
H4095       H  0.44740395  0.31344646  0.45836224     0.17800
C4096       C  0.48564964  0.20390004  0.46279833    -0.26200
C4097       C  0.48150201  0.16634045  0.46243634     0.35800
C4098       C  0.49084522  0.15379669  0.45691404    -0.20200
C4099       C  0.50346154  0.17913030  0.45178623    -0.25500
C4100       C  0.50758933  0.21690308  0.45214894     0.27200
H4101       H  0.47834043  0.21322656  0.46705817     0.13000
N4102       N  0.46687271  0.14062778  0.46765550    -0.82700
H4103       H  0.51067290  0.16967342  0.44753180     0.17800
N4104       N  0.52033310  0.24260084  0.44688564    -0.81300
H4105       H  0.43914323  0.13652821  0.46876718     0.33500
H4106       H  0.48566118  0.15464175  0.47137949     0.37900
H4107       H  0.52564076  0.22912067  0.44314071     0.33400
H4108       H  0.49714413  0.24700880  0.44559318     0.30100
H4109       H  0.40884707  0.24644973  0.45757891     0.33400
H4110       H  0.42939888  0.22634967  0.45319761     0.30100
H4111       H  0.58496572  0.38680343  0.46430785     0.38000
H4112       H  0.60447022  0.36615421  0.45984640     0.33500
C4113       C  0.48149269  0.83006535  0.45541102    -0.20300
C4114       C  0.51779417  0.83207256  0.45666040     0.35900
C4115       C  0.52097671  0.79827276  0.45595659    -0.26300
C4116       C  0.48866510  0.76256523  0.45409902     0.02400
C4117       C  0.45213303  0.76017061  0.45296669     0.27200
C4118       C  0.44913111  0.79429974  0.45351519    -0.25400
N4119       N  0.55138551  0.86849982  0.45857291    -0.82800
H4120       H  0.54872415  0.79958535  0.45691400     0.13000
C4121       C  0.49335662  0.72754907  0.45389587     0.02300
N4122       N  0.41793571  0.72291495  0.45157967    -0.81300
H4123       H  0.42122927  0.79280064  0.45262826     0.17800
C4124       C  0.49330374  0.70965577  0.45947823    -0.26200
C4125       C  0.50075405  0.67822350  0.45964881     0.35800
C4126       C  0.50853034  0.66450120  0.45409368    -0.20200
C4127       C  0.50827733  0.68235076  0.44849019    -0.25500
C4128       C  0.50143031  0.71428459  0.44834469     0.27200
H4129       H  0.48773117  0.72058226  0.46372842     0.13000
N4130       N  0.49997162  0.65993023  0.46543133    -0.82700
H4131       H  0.51453044  0.67203681  0.44423786     0.17800
N4132       N  0.50467005  0.73449168  0.44265284    -0.81300
H4133       H  0.49434365  0.67391421  0.46906915     0.33500
H4134       H  0.47637514  0.63106517  0.46529056     0.37900
H4135       H  0.51208655  0.72177595  0.43903869     0.33400
H4136       H  0.47705987  0.73068868  0.44157807     0.30100
H4137       H  0.39316118  0.72612181  0.45110820     0.33400
H4138       H  0.42221589  0.71342378  0.44730645     0.30100
H4139       H  0.55913701  0.88838871  0.45491741     0.38000
H4140       H  0.57558327  0.86475534  0.45938282     0.33500
C4141       C  0.57508210  0.60239824  0.43062744    -0.20300
C4142       C  0.57592492  0.63872675  0.43027635     0.35900
C4143       C  0.58703920  0.66008460  0.42473437    -0.26300
C4144       C  0.59770400  0.64608561  0.41955476     0.02400
C4145       C  0.59762308  0.61010559  0.41994414     0.27200
C4146       C  0.58669876  0.58878622  0.42551030    -0.25400
N4147       N  0.56624418  0.65411752  0.43559651    -0.82800
H4148       H  0.58772488  0.68799564  0.42445606     0.13000
C4149       C  0.60871797  0.66946799  0.41375505     0.02300
N4150       N  0.60786287  0.59505208  0.41465061    -0.81300
H4151       H  0.58622994  0.56098214  0.42581190     0.17800
C4152       C  0.64624755  0.68337381  0.41124026    -0.26200
C4153       C  0.65797739  0.70598741  0.40580023     0.35800
C4154       C  0.63130140  0.71487654  0.40274189    -0.20200
C4155       C  0.59368092  0.70093757  0.40535052    -0.25500
C4156       C  0.58210611  0.67820065  0.41077280     0.27200
H4157       H  0.66668968  0.67679911  0.41358149     0.13000
N4158       N  0.69678233  0.71948995  0.40339024    -0.82700
H4159       H  0.57274670  0.70717910  0.40310586     0.17800
N4160       N  0.54312646  0.66330086  0.41321335    -0.81300
H4161       H  0.71150333  0.70829160  0.40596910     0.33500
H4162       H  0.71276159  0.75003198  0.40394965     0.37900
H4163       H  0.52703289  0.67223996  0.41048665     0.33400
H4164       H  0.52869115  0.63259414  0.41295563     0.30100
H4165       H  0.60635644  0.56832066  0.41569773     0.33400
H4166       H  0.58667156  0.58902214  0.41125411     0.30100
H4167       H  0.58723717  0.65945993  0.43899782     0.38000
H4168       H  0.56853031  0.68124135  0.43458996     0.33500
C4169       C  0.14989766  0.49351394  0.54010114    -0.20300
C4170       C  0.15155036  0.46029155  0.54225963     0.35900
C4171       C  0.18773860  0.46121014  0.54238132    -0.26300
C4172       C  0.22193329  0.49367310  0.54012606     0.02400
C4173       C  0.21993221  0.52540759  0.53747466     0.27200
C4174       C  0.18393500  0.52523588  0.53754577    -0.25400
N4175       N  0.11644141  0.42558480  0.54426468    -0.82800
H4176       H  0.18936657  0.43638502  0.54422599     0.13000
C4177       C  0.25947372  0.49357794  0.54062623     0.02300
N4178       N  0.25448291  0.55775789  0.53480160    -0.81300
H4179       H  0.18279232  0.55049678  0.53579069     0.17800
C4180       C  0.27607522  0.48738319  0.53534034    -0.26200
C4181       C  0.30994759  0.48396439  0.53573236     0.35800
C4182       C  0.32784239  0.48703874  0.54153101    -0.20200
C4183       C  0.31113248  0.49358644  0.54681232    -0.25500
C4184       C  0.27714823  0.49686824  0.54641712     0.27200
H4185       H  0.26207509  0.48420414  0.53090314     0.13000
N4186       N  0.32519978  0.47615268  0.53024903    -0.82700
H4187       H  0.32481494  0.49650317  0.55126858     0.17800
N4188       N  0.26025311  0.50322282  0.55187188    -0.81300
H4189       H  0.30307518  0.44995561  0.52832013     0.33500
H4190       H  0.33179268  0.49885856  0.52711183     0.37900
H4191       H  0.27642199  0.50438364  0.55577827     0.33400
H4192       H  0.26255005  0.53084853  0.55146590     0.30100
H4193       H  0.24795943  0.57853179  0.53298659     0.33400
H4194       H  0.27492074  0.57176618  0.53833734     0.30100
H4195       H  0.09791005  0.41412022  0.54043631     0.38000
H4196       H  0.12281151  0.40391393  0.54569250     0.33500
C4197       C  0.64646033  0.49026346  0.54805847    -0.20300
C4198       C  0.65450694  0.46311918  0.55107336     0.35900
C4199       C  0.69362050  0.47100088  0.55146761    -0.26300
C4200       C  0.72473817  0.50518378  0.54886257     0.02400
C4201       C  0.71688362  0.53306880  0.54609962     0.27200
C4202       C  0.67793568  0.52525179  0.54570779    -0.25400
N4203       N  0.62294124  0.42684659  0.55344393    -0.82800
H4204       H  0.69964512  0.44945708  0.55354910     0.13000
C4205       C  0.76471157  0.50979011  0.54855826     0.02300
N4206       N  0.74850656  0.56898652  0.54362157    -0.81300
H4207       H  0.67206809  0.54654521  0.54349031     0.17800
C4208       C  0.78266534  0.51493344  0.54277410    -0.26200
C4209       C  0.81962096  0.51783870  0.54216891     0.35800
C4210       C  0.83927682  0.51565755  0.54748360    -0.20200
C4211       C  0.82104406  0.50987351  0.55326458    -0.25500
C4212       C  0.78423251  0.50751041  0.55387019     0.27200
H4213       H  0.76724605  0.51571760  0.53867962     0.13000
N4214       N  0.83652658  0.52156428  0.53615181    -0.82700
H4215       H  0.83573229  0.50756630  0.55733148     0.17800
N4216       N  0.76675931  0.50314143  0.55985084    -0.81300
H4217       H  0.81849237  0.52312299  0.53274705     0.33500
H4218       H  0.83757330  0.49587009  0.53529561     0.37900
H4219       H  0.78484464  0.50183847  0.56327349     0.33400
H4220       H  0.76509754  0.52848984  0.56071352     0.30100
H4221       H  0.73777345  0.58623253  0.54170180     0.33400
H4222       H  0.76673814  0.58508035  0.54729248     0.30100
H4223       H  0.60645571  0.41028545  0.54966544     0.38000
H4224       H  0.63392672  0.41044740  0.55559015     0.33500
C4225       C  0.49502248  0.64308927  0.53979918    -0.20300
C4226       C  0.46073220  0.64597984  0.53924199     0.35900
C4227       C  0.46374566  0.68322099  0.53965417    -0.26300
C4228       C  0.50039563  0.71750560  0.54049507     0.02400
C4229       C  0.53481671  0.71465156  0.54066724     0.27200
C4230       C  0.53168846  0.67746341  0.54042813    -0.25400
N4231       N  0.42285934  0.61102981  0.53869398    -0.82800
H4232       H  0.43729235  0.68539326  0.53953165     0.13000
C4233       C  0.50244130  0.75604647  0.54144064     0.02300
N4234       N  0.57278278  0.74956068  0.54115305    -0.81300
H4235       H  0.55799428  0.67515404  0.54083672     0.17800
C4236       C  0.52165224  0.77855933  0.54668327    -0.26200
C4237       C  0.52571540  0.81585840  0.54765227     0.35800
C4238       C  0.50912430  0.83055310  0.54334855    -0.20200
C4239       C  0.48891088  0.80728115  0.53820294    -0.25500
C4240       C  0.48586208  0.77061112  0.53716353     0.27200
H4241       H  0.53395959  0.76707477  0.55000949     0.13000
N4242       N  0.54692006  0.83872896  0.55294131    -0.82700
H4243       H  0.47554985  0.81779796  0.53490463     0.17800
N4244       N  0.46660013  0.74845965  0.53171593    -0.81300
H4245       H  0.55583557  0.82292201  0.55574392     0.33500
H4246       H  0.57265047  0.86316264  0.55133475     0.37900
H4247       H  0.45551817  0.76307949  0.52908196     0.33400
H4248       H  0.48789687  0.74701721  0.52901260     0.30100
H4249       H  0.59508886  0.74236822  0.54125631     0.33400
H4250       H  0.57713903  0.76612543  0.53715356     0.30100
H4251       H  0.42180789  0.59844155  0.53440057     0.38000
H4252       H  0.40050448  0.61816453  0.53866291     0.33500
C4253       C  0.51614656  0.15273285  0.54643630    -0.20300
C4254       C  0.50820882  0.16910142  0.54118586     0.35900
C4255       C  0.50256006  0.20138561  0.54184150    -0.26300
C4256       C  0.50501057  0.21831177  0.54761576     0.02400
C4257       C  0.51321447  0.20256592  0.55288059     0.27200
C4258       C  0.51902065  0.17012840  0.55223372    -0.25400
N4259       N  0.50609515  0.15339860  0.53514607    -0.82800
H4260       H  0.49652006  0.21360668  0.53778037     0.13000
C4261       C  0.49882753  0.25254255  0.54797584     0.02300
N4262       N  0.51498180  0.21917912  0.55885882    -0.81300
H4263       H  0.52485727  0.15786330  0.55630368     0.17800
C4264       C  0.46307374  0.24829152  0.54589341    -0.26200
C4265       C  0.45666990  0.28043322  0.54576291     0.35800
C4266       C  0.48689410  0.31780964  0.54771723    -0.20200
C4267       C  0.52242999  0.32177193  0.54991242    -0.25500
C4268       C  0.52888188  0.28962323  0.54999590     0.27200
H4269       H  0.44009772  0.21968345  0.54434208     0.13000
N4270       N  0.41955266  0.27516397  0.54367687    -0.82700
H4271       H  0.54573790  0.35031914  0.55139023     0.17800
N4272       N  0.56608949  0.29465304  0.55198235    -0.81300
H4273       H  0.40075027  0.24602383  0.54233926     0.33500
H4274       H  0.40617892  0.28056273  0.54742725     0.37900
H4275       H  0.57916095  0.28922191  0.54819378     0.33400
H4276       H  0.58504770  0.32376731  0.55331860     0.30100
H4277       H  0.52135208  0.20425439  0.56225155     0.33400
H4278       H  0.48699236  0.21476876  0.55985310     0.30100
H4279       H  0.47821370  0.14454834  0.53332804     0.38000
H4280       H  0.52700707  0.17581828  0.53235355     0.33500
C4281       C  0.50614348  0.49883504  0.51614499    -0.20300
C4282       C  0.51473828  0.47073395  0.51359405     0.35900
C4283       C  0.51422272  0.46604731  0.50718139    -0.26300
C4284       C  0.50500210  0.48847203  0.50323335     0.02400
C4285       C  0.49698187  0.51697335  0.50573924     0.27200
C4286       C  0.49718543  0.52157110  0.51218568    -0.25400
N4287       N  0.52244177  0.44588159  0.51753362    -0.82800
H4288       H  0.51985392  0.44385933  0.50524860     0.13000
C4289       C  0.50230873  0.48051444  0.49650299     0.02300
N4290       N  0.48888496  0.54119755  0.50171865    -0.81300
H4291       H  0.49078901  0.54321707  0.51412341     0.17800
C4292       C  0.46696329  0.46978769  0.49342768    -0.26200
C4293       C  0.46331453  0.46312234  0.48703483     0.35800
C4294       C  0.49571697  0.46646602  0.48362554    -0.20200
C4295       C  0.53043083  0.47516701  0.48681187    -0.25500
C4296       C  0.53431173  0.48294923  0.49317688     0.27200
H4297       H  0.44218837  0.46713232  0.49603374     0.13000
N4298       N  0.42710690  0.45392938  0.48400503    -0.82700
H4299       H  0.55561906  0.47829379  0.48428273     0.17800
N4300       N  0.57109694  0.49477475  0.49623329    -0.81300
H4301       H  0.40682480  0.45378855  0.48714597     0.33500
H4302       H  0.41483008  0.42535098  0.48226256     0.37900
H4303       H  0.59176852  0.49533384  0.49313265     0.33400
H4304       H  0.58214578  0.52367585  0.49776945     0.30100
H4305       H  0.48387992  0.56085957  0.50427637     0.33400
H4306       H  0.51413380  0.55821891  0.49908361     0.30100
H4307       H  0.49638703  0.42746043  0.51989354     0.38000
H4308       H  0.52917942  0.42756873  0.51493671     0.33500
C4309       C  0.08736006  0.71027312  0.90325040    -0.20300
C4310       C  0.11357574  0.71703471  0.90817609     0.35900
C4311       C  0.10050246  0.69190844  0.91332057    -0.26300
C4312       C  0.06181036  0.66026402  0.91365902     0.02400
C4313       C  0.03548459  0.65378170  0.90877711     0.27200
C4314       C  0.04840673  0.67914307  0.90365645    -0.25400
N4315       N  0.15314683  0.74968059  0.90797824    -0.82800
H4316       H  0.12043308  0.69727385  0.91713155     0.13000
C4317       C  0.04906791  0.63514614  0.91926833     0.02300
N4318       N  0.99600308  0.62100102  0.90898865    -0.81300
H4319       H  0.02835260  0.67376037  0.89986361     0.17800
C4320       C  0.01797787  0.63255652  0.92280711    -0.26200
C4321       C  0.00686388  0.61164277  0.92840269     0.35800
C4322       C  0.02733953  0.59260525  0.93051309    -0.20200
C4323       C  0.05791389  0.59456002  0.92684658    -0.25500
C4324       C  0.06879755  0.61537758  0.92124808     0.27200
H4325       H  0.00306155  0.64800622  0.92127868     0.13000
N4326       N  0.97556026  0.61065781  0.93198539    -0.82700
H4327       H  0.07339241  0.57959699  0.92833116     0.17800
N4328       N  0.09974801  0.61647350  0.91755059    -0.81300
H4329       H  0.96285346  0.62492756  0.92966829     0.33500
H4330       H  0.98801916  0.62674838  0.93601533     0.37900
H4331       H  0.11145490  0.60062297  0.91966406     0.33400
H4332       H  0.08723834  0.60215999  0.91339455     0.30100
H4333       H  0.98039505  0.62035941  0.90504123     0.33400
H4334       H  0.99778579  0.59528878  0.90892085     0.30100
H4335       H  0.15152827  0.77548348  0.90804309     0.38000
H4336       H  0.16871239  0.75023114  0.91192608     0.33500
C4337       C  0.15975159  0.80181326  0.81746250    -0.20300
C4338       C  0.19443443  0.81869450  0.82106657     0.35900
C4339       C  0.19214674  0.82093475  0.82749734    -0.26300
C4340       C  0.15593619  0.80703159  0.83049223     0.02400
C4341       C  0.12104815  0.78944707  0.82696686     0.27200
C4342       C  0.12330172  0.78709415  0.82049796    -0.25400
N4343       N  0.23234701  0.83556305  0.81822011    -0.82800
H4344       H  0.21910685  0.83479958  0.83016679     0.13000
C4345       C  0.15562939  0.81190378  0.83730762     0.02300
N4346       N  0.08356899  0.77429303  0.82996384    -0.81300
H4347       H  0.09645911  0.77417058  0.81780535     0.17800
C4348       C  0.14117300  0.83519546  0.83983449    -0.26200
C4349       C  0.14331410  0.84275985  0.84623135     0.35800
C4350       C  0.16007711  0.82641998  0.85019615    -0.20200
C4351       C  0.17446845  0.80312662  0.84761515    -0.25500
C4352       C  0.17210369  0.79545684  0.84125572     0.27200
H4353       H  0.12901237  0.84826232  0.83677915     0.13000
N4354       N  0.12922351  0.86750371  0.84867436    -0.82700
H4355       H  0.18682052  0.78989572  0.85059607     0.17800
N4356       N  0.18598963  0.77059309  0.83878250    -0.81300
H4357       H  0.11761182  0.87691877  0.84515998     0.33500
H4358       H  0.15345388  0.89274167  0.85045784     0.37900
H4359       H  0.19749412  0.76094200  0.84227930     0.33400
H4360       H  0.16167009  0.74550933  0.83698148     0.30100
H4361       H  0.06079833  0.76262995  0.82672230     0.33400
H4362       H  0.07953881  0.75092095  0.83277578     0.30100
H4363       H  0.24835527  0.86530135  0.81943985     0.38000
H4364       H  0.24694306  0.82159656  0.82001300     0.33500
C4365       C  0.34272688  0.84097667  0.79060150    -0.20300
C4366       C  0.37680577  0.86541237  0.78710701     0.35900
C4367       C  0.40987109  0.86057820  0.78759656    -0.26300
C4368       C  0.40978309  0.83177233  0.79144940     0.02400
C4369       C  0.37611809  0.80764847  0.79498901     0.27200
C4370       C  0.34322593  0.81279306  0.79458542    -0.25400
N4371       N  0.37802030  0.89521416  0.78310843    -0.82800
H4372       H  0.43604178  0.87946130  0.78494563     0.13000
C4373       C  0.44486835  0.82667566  0.79155331     0.02300
N4374       N  0.37504538  0.77730861  0.79884501    -0.81300
H4375       H  0.31733530  0.79368066  0.79727275     0.17800
C4376       C  0.46402237  0.82898228  0.79715630    -0.26200
C4377       C  0.49853738  0.82629900  0.79729907     0.35800
C4378       C  0.51407054  0.82145238  0.79171434    -0.20200
C4379       C  0.49433773  0.81833319  0.78616220    -0.25500
C4380       C  0.45985594  0.82052112  0.78602204     0.27200
H4381       H  0.45254331  0.83386287  0.80140123     0.13000
N4382       N  0.51827628  0.82953094  0.80303687    -0.82700
H4383       H  0.50580464  0.81384088  0.78188152     0.17800
N4384       N  0.43987775  0.81639795  0.78027348    -0.81300
H4385       H  0.50284539  0.83277754  0.80670567     0.33500
H4386       H  0.54565213  0.85532276  0.80287117     0.37900
H4387       H  0.45498705  0.81245585  0.77662540     0.33400
H4388       H  0.41244179  0.79074450  0.78053879     0.30100
H4389       H  0.34814839  0.76218563  0.80116208     0.33400
H4390       H  0.37677185  0.75683868  0.79596794     0.30100
H4391       H  0.37661906  0.91624078  0.78589047     0.38000
H4392       H  0.40484775  0.90981666  0.78076148     0.33500
C4393       C  0.02761324  0.85010128  0.78873521    -0.20300
C4394       C  0.01067527  0.85190429  0.78306091     0.35900
C4395       C  0.97312845  0.84795213  0.78302293    -0.26300
C4396       C  0.95163152  0.84108255  0.78847315     0.02400
C4397       C  0.96846485  0.83994175  0.79414527     0.27200
C4398       C  0.00638761  0.84473682  0.79422484    -0.25400
N4399       N  0.03039668  0.85535797  0.77732192    -0.82800
H4400       H  0.95967063  0.84831190  0.77867697     0.13000
C4401       C  0.91063580  0.83287006  0.78807627     0.02300
N4402       N  0.94676123  0.83342072  0.79977902    -0.81300
H4403       H  0.01922394  0.84382035  0.79860110     0.17800
C4404       C  0.87993208  0.79547675  0.78971668    -0.26200
C4405       C  0.84060659  0.78621566  0.78924159     0.35800
C4406       C  0.83174923  0.81474510  0.78704578    -0.20200
C4407       C  0.86261181  0.85188719  0.78526504    -0.25500
C4408       C  0.90199886  0.86134866  0.78581149     0.27200
H4409       H  0.88656178  0.77331102  0.79134734     0.13000
N4410       N  0.80982210  0.74766944  0.79090251    -0.82700
H4411       H  0.85607219  0.87410931  0.78363322     0.17800
N4412       N  0.93330247  0.89985037  0.78415031    -0.81300
H4413       H  0.81265131  0.72720913  0.78818493     0.33500
H4414       H  0.81390155  0.74266647  0.79550739     0.37900
H4415       H  0.92196286  0.91733610  0.78255400     0.33400
H4416       H  0.94917717  0.91328337  0.78815814     0.30100
H4417       H  0.96306475  0.83270097  0.80354029     0.33400
H4418       H  0.94269592  0.85753797  0.80045266     0.30100
H4419       H  0.02975633  0.82868984  0.77663376     0.38000
H4420       H  0.01480235  0.85824147  0.77364148     0.33500
C4421       C  0.62660761  0.90235466  0.90291382    -0.20300
C4422       C  0.65363207  0.91928844  0.90783253     0.35900
C4423       C  0.64214147  0.93076512  0.91324741    -0.26300
C4424       C  0.60421452  0.92543731  0.91386433     0.02400
C4425       C  0.57747268  0.90941481  0.90892132     0.27200
C4426       C  0.58885738  0.89785649  0.90351657    -0.25400
N4427       N  0.69217132  0.92368838  0.90739594    -0.82800
H4428       H  0.66252789  0.94311799  0.91706862     0.13000
C4429       C  0.59231904  0.93518154  0.91981292     0.02300
N4430       N  0.53910441  0.90549161  0.90937716    -0.81300
H4431       H  0.56815786  0.88537482  0.89973496     0.17800
C4432       C  0.60004014  0.97360950  0.92090885    -0.26200
C4433       C  0.58864199  0.98359176  0.92648098     0.35800
C4434       C  0.56902238  0.95437428  0.93104821    -0.20200
C4435       C  0.56162220  0.91597528  0.92992383    -0.25500
C4436       C  0.57347358  0.90621821  0.92439346     0.27200
H4437       H  0.61475771  0.99577578  0.91737986     0.13000
N4438       N  0.59626315  0.02303489  0.92745464    -0.82700
H4439       H  0.54707257  0.89357527  0.93342575     0.17800
N4440       N  0.56744475  0.86728325  0.92347687    -0.81300
H4441       H  0.61117998  0.04090748  0.92368469     0.33500
H4442       H  0.56910018  0.02189460  0.92769644     0.37900
H4443       H  0.55406479  0.84972365  0.92734517     0.33400
H4444       H  0.54777917  0.85436569  0.91981852     0.30100
H4445       H  0.52329843  0.89394824  0.90529375     0.33400
H4446       H  0.52355219  0.88502274  0.91283717     0.30100
H4447       H  0.68866343  0.89548158  0.90719566     0.38000
H4448       H  0.70850463  0.93696031  0.91137506     0.33500
C4449       C  0.49995182  0.84370707  0.88192427    -0.20300
C4450       C  0.49366081  0.87594742  0.88124271     0.35900
C4451       C  0.45499794  0.86950731  0.88139275    -0.26300
C4452       C  0.42275154  0.83158907  0.88223680     0.02400
C4453       C  0.42908717  0.79969329  0.88319242     0.27200
C4454       C  0.46760247  0.80604840  0.88302692    -0.25400
N4455       N  0.52646826  0.91499054  0.88042288    -0.82800
H4456       H  0.44986278  0.89396062  0.88074185     0.13000
C4457       C  0.38226118  0.82510476  0.88184330     0.02300
N4458       N  0.39624891  0.76092033  0.88424351    -0.81300
H4459       H  0.47227736  0.78123406  0.88358657     0.17800
C4460       C  0.35883679  0.80440885  0.87677718    -0.26200
C4461       C  0.32008050  0.79703808  0.87623341     0.35800
C4462       C  0.30448768  0.81049581  0.88087671    -0.20200
C4463       C  0.32772876  0.83072043  0.88599235    -0.25500
C4464       C  0.36677237  0.83863367  0.88648130     0.27200
H4465       H  0.37097980  0.79411169  0.87323014     0.13000
N4466       N  0.29639069  0.77574777  0.87101386    -0.82700
H4467       H  0.31575139  0.84136603  0.88951242     0.17800
N4468       N  0.39091332  0.86070655  0.89161101    -0.81300
H4469       H  0.31236050  0.76824594  0.86799253     0.33500
H4470       H  0.27296561  0.74931513  0.87264574     0.37900
H4471       H  0.37527914  0.86897003  0.89457335     0.33400
H4472       H  0.39764903  0.84210923  0.89412684     0.30100
H4473       H  0.40586265  0.74062342  0.88483919     0.33400
H4474       H  0.38306416  0.76163161  0.88839366     0.30100
H4475       H  0.54352081  0.92239067  0.88443118     0.38000
H4476       H  0.51678485  0.93534359  0.88001196     0.33500
C4477       C  0.81222580  0.82629796  0.87306466    -0.20300
C4478       C  0.84933439  0.85880578  0.87156216     0.35900
C4479       C  0.88322353  0.85506509  0.87198338    -0.26300
C4480       C  0.88065843  0.81926299  0.87368828     0.02400
C4481       C  0.84330402  0.78611260  0.87472873     0.27200
C4482       C  0.80969385  0.79013857  0.87451111    -0.25400
N4483       N  0.85284693  0.89596347  0.86995207    -0.82800
H4484       H  0.91190859  0.88046125  0.87112957     0.13000
C4485       C  0.91718581  0.81695116  0.87455442     0.02300
N4486       N  0.83972264  0.74853522  0.87604666    -0.81300
H4487       H  0.78124471  0.76492688  0.87557360     0.17800
C4488       C  0.92428690  0.80473204  0.88026239    -0.26200
C4489       C  0.95829992  0.80198106  0.88130139     0.35800
C4490       C  0.98577450  0.81096532  0.87645317    -0.20200
C4491       C  0.97863024  0.82380886  0.87076907    -0.25500
C4492       C  0.94485499  0.82689992  0.86977846     0.27200
H4493       H  0.90333556  0.79786222  0.88397026     0.13000
N4494       N  0.96494730  0.79052643  0.88727884    -0.82700
H4495       H  0.99932588  0.83124290  0.86701365     0.17800
N4496       N  0.93829304  0.83960925  0.86390286    -0.81300
H4497       H  0.94130531  0.78371879  0.89022540     0.33500
H4498       H  0.98935132  0.81495724  0.88920695     0.37900
H4499       H  0.96157566  0.84618490  0.86089013     0.33400
H4500       H  0.91320333  0.81601981  0.86195991     0.30100
H4501       H  0.81024619  0.72715966  0.87671522     0.33400
H4502       H  0.84925316  0.73998098  0.87214677     0.30100
H4503       H  0.83902438  0.89242508  0.86568985     0.38000
H4504       H  0.88235873  0.91725899  0.86928573     0.33500
C4505       C  0.66328050  0.82737538  0.84945570    -0.20300
C4506       C  0.62634725  0.81285018  0.84647985     0.35900
C4507       C  0.62453294  0.81440871  0.84001322    -0.26300
C4508       C  0.65860656  0.83091027  0.83638046     0.02400
C4509       C  0.69556698  0.84634875  0.83931913     0.27200
C4510       C  0.69750795  0.84445881  0.84580679    -0.25400
N4511       N  0.59074993  0.79772840  0.85002094    -0.82800
H4512       H  0.59624092  0.80340021  0.83778038     0.13000
C4513       C  0.65476523  0.83190615  0.82952139     0.02300
N4514       N  0.73098076  0.86358980  0.83570315    -0.81300
H4515       H  0.72592479  0.85603231  0.84801780     0.17800
C4516       C  0.67402831  0.86796766  0.82636368    -0.26200
C4517       C  0.67109392  0.86987772  0.81990086     0.35800
C4518       C  0.64816307  0.83490774  0.81648972    -0.20200
C4519       C  0.62776062  0.79905740  0.81969977    -0.25500
C4520       C  0.63124281  0.79710877  0.82613540     0.27200
H4521       H  0.69143942  0.89479217  0.82896316     0.13000
N4522       N  0.69142622  0.90719598  0.81679917    -0.82700
H4523       H  0.61058036  0.77200275  0.81714445     0.17800
N4524       N  0.61196229  0.75969414  0.82922624    -0.81300
H4525       H  0.70729932  0.92990153  0.81994685     0.33500
H4526       H  0.67016247  0.91255679  0.81485632     0.37900
H4527       H  0.59588365  0.73695189  0.82609371     0.33400
H4528       H  0.63383476  0.75474788  0.83102843     0.30100
H4529       H  0.75568625  0.87377869  0.83854892     0.33400
H4530       H  0.73030948  0.84136682  0.83295648     0.30100
H4531       H  0.56623458  0.78765957  0.84713520     0.38000
H4532       H  0.59229840  0.82123129  0.85251814     0.33500
C4533       C  0.15026838  0.17084775  0.78682124    -0.20300
C4534       C  0.13705108  0.14503982  0.78166967     0.35900
C4535       C  0.14408072  0.11319821  0.78147774    -0.26300
C4536       C  0.16377053  0.10636209  0.78629045     0.02400
C4537       C  0.17705014  0.13190057  0.79139386     0.27200
C4538       C  0.17025540  0.16371969  0.79160380    -0.25400
N4539       N  0.11690120  0.15113612  0.77662608    -0.82800
H4540       H  0.13417459  0.09352445  0.77754618     0.13000
C4541       C  0.17016913  0.07218022  0.78600328     0.02300
N4542       N  0.19732710  0.12529014  0.79636553    -0.81300
H4543       H  0.18085616  0.18308354  0.79556520     0.17800
C4544       C  0.20868183  0.07860428  0.78621980    -0.26200
C4545       C  0.21615932  0.04717985  0.78632635     0.35800
C4546       C  0.18397324  0.00806374  0.78637414    -0.20200
C4547       C  0.14549779  0.00181695  0.78594852    -0.25500
C4548       C  0.13823085  0.03338944  0.78578300     0.27200
H4549       H  0.23327535  0.10847809  0.78627199     0.13000
N4550       N  0.25654265  0.05636677  0.78623158    -0.82700
H4551       H  0.12079800  0.97199404  0.78593927     0.17800
N4552       N  0.09854687  0.02620069  0.78554406    -0.81300
H4553       H  0.26943697  0.07278725  0.78224371     0.33500
H4554       H  0.25888613  0.03118575  0.78578579     0.37900
H4555       H  0.07846828  0.99600289  0.78535458     0.33400
H4556       H  0.09308860  0.03646249  0.78966467     0.30100
H4557       H  0.20566851  0.14700686  0.79974901     0.33400
H4558       H  0.17751545  0.09857421  0.79844701     0.30100
H4559       H  0.08939959  0.14523385  0.77824876     0.38000
H4560       H  0.11135647  0.13091044  0.77308866     0.33500
C4561       C  0.16619471  0.67721932  0.79371933    -0.20300
C4562       C  0.19887065  0.67138117  0.79407118     0.35900
C4563       C  0.19284827  0.63278870  0.79382960    -0.26300
C4564       C  0.15497850  0.60009408  0.79311874     0.02400
C4565       C  0.12230287  0.60577051  0.79288256     0.27200
C4566       C  0.12820962  0.64418896  0.79321277    -0.25400
N4567       N  0.23808117  0.70462387  0.79432090    -0.82800
H4568       H  0.21788432  0.62821515  0.79394761     0.13000
C4569       C  0.15012090  0.56040298  0.79211480     0.02300
N4570       N  0.08339539  0.57256868  0.79211718    -0.81300
H4571       H  0.10309994  0.64854920  0.79284986     0.17800
C4572       C  0.13590954  0.53262908  0.79688834    -0.26200
C4573       C  0.13145229  0.49497139  0.79607013     0.35800
C4574       C  0.14113893  0.48479962  0.79032067    -0.20200
C4575       C  0.15397018  0.51228789  0.78548813    -0.25500
C4576       C  0.15889076  0.55006610  0.78634751     0.27200
H4577       H  0.12867632  0.54056133  0.80128251     0.13000
N4578       N  0.11720106  0.46709619  0.80105719    -0.82700
H4579       H  0.16164931  0.50482358  0.78109243     0.17800
N4580       N  0.17346501  0.57834024  0.78142108    -0.81300
H4581       H  0.11182827  0.47926581  0.80496971     0.33500
H4582       H  0.09012845  0.44336708  0.79970463     0.37900
H4583       H  0.17903147  0.56640942  0.77749834     0.33400
H4584       H  0.15121790  0.58440794  0.78023143     0.30100
H4585       H  0.06251270  0.58169313  0.79203400     0.33400
H4586       H  0.08223643  0.56017367  0.78779940     0.30100
H4587       H  0.24325314  0.72004308  0.79017377     0.38000
H4588       H  0.25878097  0.69529239  0.79454841     0.33500
C4589       C  0.49955234  0.65672036  0.78921850    -0.20300
C4590       C  0.49300190  0.61935650  0.78740448     0.35900
C4591       C  0.45478231  0.58666228  0.78772288    -0.26300
C4592       C  0.42318313  0.59051753  0.78988877     0.02400
C4593       C  0.42957598  0.62774727  0.79167912     0.27200
C4594       C  0.46779955  0.66046008  0.79138765    -0.25400
N4595       N  0.52528287  0.61460670  0.78538662    -0.82800
H4596       H  0.44958389  0.55790803  0.78633925     0.13000
C4597       C  0.38329766  0.55539445  0.79009928     0.02300
N4598       N  0.39709206  0.63216973  0.79369430    -0.81300
H4599       H  0.47272878  0.68916065  0.79274601     0.17800
C4600       C  0.36488887  0.54037887  0.79580395    -0.26200
C4601       C  0.32758021  0.50609175  0.79613854     0.35800
C4602       C  0.30853855  0.48671044  0.79063069    -0.20200
C4603       C  0.32665549  0.50291562  0.78493723    -0.25500
C4604       C  0.36383415  0.53673057  0.78461553     0.27200
H4605       H  0.38009583  0.55505946  0.80000365     0.13000
N4606       N  0.31006930  0.49010889  0.80202432    -0.82700
H4607       H  0.31192428  0.48868828  0.78068260     0.17800
N4608       N  0.38220670  0.55192715  0.77874238    -0.81300
H4609       H  0.32913436  0.50657813  0.80559349     0.33500
H4610       H  0.28530099  0.49331971  0.80247056     0.37900
H4611       H  0.36412501  0.53451210  0.77514799     0.33400
H4612       H  0.38526487  0.57980013  0.77820623     0.30100
H4613       H  0.40668904  0.66148374  0.79483349     0.33400
H4614       H  0.37782988  0.62523911  0.78996537     0.30100
H4615       H  0.54438532  0.62115141  0.78912756     0.38000
H4616       H  0.51546075  0.58530318  0.78420778     0.33500
C4617       C  0.98939028  0.16098798  0.78623575    -0.20300
C4618       C  0.95256422  0.15063447  0.78890590     0.35900
C4619       C  0.92291028  0.11090302  0.78908815    -0.26300
C4620       C  0.92912226  0.08131821  0.78667251     0.02400
C4621       C  0.96553463  0.09142402  0.78395643     0.27200
C4622       C  0.99513325  0.13115521  0.78370574    -0.25400
N4623       N  0.94523048  0.18032354  0.79139944    -0.82800
H4624       H  0.89462546  0.10284706  0.79111371     0.13000
C4625       C  0.89685516  0.03990724  0.78701315     0.02300
N4626       N  0.97255988  0.06122684  0.78159855    -0.81300
H4627       H  0.02331066  0.13865093  0.78170312     0.17800
C4628       C  0.87942783  0.01953492  0.78156083    -0.26200
C4629       C  0.84651837  0.98141238  0.78169943     0.35800
C4630       C  0.83039473  0.96344850  0.78746089    -0.20200
C4631       C  0.84898280  0.98365194  0.79291353    -0.25500
C4632       C  0.88212998  0.02156373  0.79274137     0.27200
H4633       H  0.89102618  0.03390849  0.77717359     0.13000
N4634       N  0.82858719  0.96189939  0.77600784    -0.82700
H4635       H  0.83735882  0.96999429  0.79734216     0.17800
N4636       N  0.90068601  0.04183821  0.79835598    -0.81300
H4637       H  0.84191506  0.98063793  0.77225396     0.33500
H4638       H  0.83433621  0.93876803  0.77546790     0.37900
H4639       H  0.88619325  0.02442924  0.80218781     0.33400
H4640       H  0.92920053  0.04608971  0.79840036     0.30100
H4641       H  0.00093441  0.07357040  0.77976680     0.33400
H4642       H  0.97141018  0.04375977  0.78532318     0.30100
H4643       H  0.94592417  0.19796934  0.78773540     0.38000
H4644       H  0.91698296  0.16760464  0.79328965     0.33500
C4645       C  0.38278585  0.41695520  0.93079854    -0.20300
C4646       C  0.35056215  0.42313710  0.92982154     0.35900
C4647       C  0.32925146  0.41067907  0.92426177    -0.26300
C4648       C  0.33933932  0.39223912  0.91965988     0.02400
C4649       C  0.37120784  0.38580042  0.92062207     0.27200
C4650       C  0.39249744  0.39804782  0.92618984    -0.25400
N4651       N  0.33930646  0.44167413  0.93448809    -0.82800
H4652       H  0.30469591  0.41550123  0.92348897     0.13000
C4653       C  0.31703920  0.38114706  0.91376393     0.02300
N4654       N  0.38216623  0.36741495  0.91589797    -0.81300
H4655       H  0.41719267  0.39336323  0.92689503     0.17800
C4656       C  0.33069413  0.40786662  0.90884250    -0.26200
C4657       C  0.30982690  0.39913441  0.90323480     0.35800
C4658       C  0.27452780  0.36276514  0.90253561    -0.20200
C4659       C  0.26125172  0.33583437  0.90745214    -0.25500
C4660       C  0.28196701  0.34482264  0.91308112     0.27200
H4661       H  0.35770790  0.43571019  0.90939811     0.13000
N4662       N  0.32463276  0.42681578  0.89822539    -0.82700
H4663       H  0.23415230  0.30803312  0.90693944     0.17800
N4664       N  0.26717004  0.31760274  0.91814697    -0.81300
H4665       H  0.35070072  0.45211996  0.89950046     0.33500
H4666       H  0.33186364  0.41385152  0.89462522     0.37900
H4667       H  0.24073504  0.29252786  0.91693551     0.33400
H4668       H  0.28739283  0.30823590  0.91902560     0.30100
H4669       H  0.40666308  0.36544277  0.91727464     0.33400
H4670       H  0.35899426  0.33856184  0.91538112     0.30100
H4671       H  0.32975041  0.42313663  0.93833470     0.38000
H4672       H  0.31536882  0.44434589  0.93301742     0.33500
C4673       C  0.15449215  0.31720503  0.84907840    -0.20300
C4674       C  0.14072252  0.28415977  0.84512490     0.35900
C4675       C  0.14767551  0.28995313  0.83871607    -0.26300
C4676       C  0.16843593  0.32794289  0.83616408     0.02400
C4677       C  0.18250597  0.36078222  0.84010750     0.27200
C4678       C  0.17497592  0.35509541  0.84646021    -0.25400
N4679       N  0.11976533  0.24494409  0.84759233    -0.82800
H4680       H  0.13652140  0.26469605  0.83567974     0.13000
C4681       C  0.17426872  0.33324957  0.82934906     0.02300
N4682       N  0.20515693  0.39992472  0.83765336    -0.81300
H4683       H  0.18653514  0.38076260  0.84941035     0.17800
C4684       C  0.16094649  0.35570546  0.82622313    -0.26200
C4685       C  0.16450883  0.36062038  0.81978466     0.35800
C4686       C  0.18247199  0.34311236  0.81634575    -0.20200
C4687       C  0.19637008  0.32113151  0.81950905    -0.25500
C4688       C  0.19261838  0.31616118  0.82595760     0.27200
H4689       H  0.14648046  0.36848520  0.82881565     0.13000
N4690       N  0.14825675  0.38181699  0.81673304    -0.82700
H4691       H  0.20991082  0.30738648  0.81692461     0.17800
N4692       N  0.20735052  0.29381003  0.82907157    -0.81300
H4693       H  0.13696571  0.39352499  0.81993567     0.33500
H4694       H  0.12438142  0.36158708  0.81408854     0.37900
H4695       H  0.21984776  0.28304921  0.82591919     0.33400
H4696       H  0.23002948  0.31302461  0.83199916     0.30100
H4697       H  0.21329658  0.42091472  0.84115215     0.33400
H4698       H  0.23122891  0.40280733  0.83587259     0.30100
H4699       H  0.09325866  0.24073221  0.84940955     0.38000
H4700       H  0.11239956  0.22410671  0.84408848     0.33500
C4701       C  0.02022322  0.16725871  0.87234833    -0.20300
C4702       C  0.01703262  0.13028315  0.87362594     0.35900
C4703       C  0.97953068  0.09656995  0.87408091    -0.26300
C4704       C  0.94502782  0.09868430  0.87337861     0.02400
C4705       C  0.94822081  0.13529506  0.87197984     0.27200
C4706       C  0.98566633  0.16910068  0.87151351    -0.25400
N4707       N  0.05068256  0.12601155  0.87491139    -0.82800
H4708       H  0.97730342  0.06866192  0.87524369     0.13000
C4709       C  0.90572336  0.06276944  0.87431713     0.02300
N4710       N  0.91333900  0.13807318  0.87114091    -0.81300
H4711       H  0.98796086  0.19741248  0.87067464     0.17800
C4712       C  0.88010370  0.06305177  0.87881575    -0.26200
C4713       C  0.84204063  0.03056058  0.87966868     0.35800
C4714       C  0.82943890  0.99631355  0.87603823    -0.20200
C4715       C  0.85558663  0.99597037  0.87160732    -0.25500
C4716       C  0.89330706  0.02877649  0.87068589     0.27200
H4717       H  0.88972770  0.08912834  0.88162335     0.13000
N4718       N  0.81603594  0.03275037  0.88411400    -0.82700
H4719       H  0.84654708  0.96998237  0.86880563     0.17800
N4720       N  0.91882425  0.02791114  0.86600867    -0.81300
H4721       H  0.83009755  0.05959419  0.88646536     0.33500
H4722       H  0.79275742  0.03221216  0.88168280     0.37900
H4723       H  0.90543711  0.00070189  0.86375925     0.33400
H4724       H  0.92296950  0.04897009  0.86268940     0.30100
H4725       H  0.92065515  0.16710502  0.87022176     0.33400
H4726       H  0.89877005  0.12157830  0.86723632     0.30100
H4727       H  0.07696167  0.15275318  0.87469029     0.38000
H4728       H  0.05210997  0.10799758  0.87149072     0.33500
C4729       C  0.33628150  0.49312228  0.88073577    -0.20300
C4730       C  0.33056559  0.52525961  0.88206394     0.35900
C4731       C  0.36305442  0.56369462  0.88205082    -0.26300
C4732       C  0.40088987  0.57058351  0.88073103     0.02400
C4733       C  0.40680602  0.53875470  0.87943826     0.27200
C4734       C  0.37440043  0.50031658  0.87942118    -0.25400
N4735       N  0.29177705  0.51893514  0.88326126    -0.82800
H4736       H  0.35886969  0.58848459  0.88299469     0.13000
C4737       C  0.43415644  0.61141979  0.88055888     0.02300
N4738       N  0.44574998  0.54568828  0.87818267    -0.81300
H4739       H  0.37890870  0.47583096  0.87838666     0.17800
C4740       C  0.45771418  0.62726177  0.88580745    -0.26200
C4741       C  0.49129611  0.66497474  0.88567023     0.35800
C4742       C  0.50108117  0.68721264  0.88017064    -0.20200
C4743       C  0.47682560  0.67147513  0.87496504    -0.25500
C4744       C  0.44341684  0.63376403  0.87510624     0.27200
H4745       H  0.45036702  0.60969053  0.88996783     0.13000
N4746       N  0.51617595  0.68008395  0.89100943    -0.82700
H4747       H  0.48422503  0.68856151  0.87075123     0.17800
N4748       N  0.41895102  0.61793226  0.86973690    -0.81300
H4749       H  0.50466616  0.66011975  0.89466565     0.33500
H4750       H  0.54327958  0.68261712  0.88989898     0.37900
H4751       H  0.42960709  0.63830620  0.86612643     0.33400
H4752       H  0.42090589  0.59361295  0.86825628     0.30100
H4753       H  0.44515929  0.51912524  0.87737804     0.33400
H4754       H  0.45547991  0.56190606  0.87409905     0.30100
H4755       H  0.27529503  0.50794828  0.87922182     0.38000
H4756       H  0.29280656  0.54556373  0.88420997     0.33500
C4757       C  0.15618250  0.97065138  0.87436641    -0.20300
C4758       C  0.19148360  0.00603761  0.87561155     0.35900
C4759       C  0.19124246  0.04162602  0.87580646    -0.26300
C4760       C  0.15668094  0.04276121  0.87469915     0.02400
C4761       C  0.12190027  0.00789062  0.87307902     0.27200
C4762       C  0.12197607  0.97203851  0.87293401    -0.25400
N4763       N  0.22743001  0.00562997  0.87670026    -0.82800
H4764       H  0.21812438  0.06871224  0.87686532     0.13000
C4765       C  0.15778301  0.08093859  0.87526871     0.02300
N4766       N  0.08658325  0.00896136  0.87172018    -0.81300
H4767       H  0.09490836  0.94494332  0.87196301     0.17800
C4768       C  0.15098132  0.09754011  0.87005240    -0.26200
C4769       C  0.15384940  0.13465769  0.87029970     0.35800
C4770       C  0.16435275  0.15612745  0.87595259    -0.20200
C4771       C  0.17055437  0.13880548  0.88119310    -0.25500
C4772       C  0.16723115  0.10146439  0.88091254     0.27200
H4773       H  0.14381125  0.08153047  0.86573243     0.13000
N4774       N  0.14695338  0.15059180  0.86477307    -0.82700
H4775       H  0.17807017  0.15441097  0.88554660     0.17800
N4776       N  0.17357065  0.08427710  0.88633360    -0.81300
H4777       H  0.14337950  0.13272716  0.86096837     0.33500
H4778       H  0.12009701  0.14979957  0.86531189     0.37900
H4779       H  0.18058553  0.10321557  0.89010649     0.33400
H4780       H  0.14699310  0.05894136  0.88739485     0.30100
H4781       H  0.06360447  0.98082486  0.87062791     0.33400
H4782       H  0.07820232  0.01769692  0.87572512     0.30100
H4783       H  0.23442087  0.99603974  0.87264618     0.38000
H4784       H  0.25066351  0.03406027  0.87754875     0.33500
C4785       C  0.17709153  0.48133934  0.87976124    -0.20300
C4786       C  0.18709911  0.50872277  0.87490295     0.35900
C4787       C  0.18192183  0.54139596  0.87569028    -0.26300
C4788       C  0.16721694  0.54724375  0.88122909     0.02400
C4789       C  0.15833940  0.52073289  0.88614292     0.27200
C4790       C  0.16341819  0.48798452  0.88536731    -0.25400
N4791       N  0.20288356  0.50351313  0.86922967    -0.82800
H4792       H  0.18914815  0.56233040  0.87196647     0.13000
C4793       C  0.16079527  0.58112257  0.88176551     0.02300
N4794       N  0.14396736  0.52712484  0.89186972    -0.81300
H4795       H  0.15598143  0.46715608  0.88911066     0.17800
C4796       C  0.12247123  0.57490629  0.88127892    -0.26200
C4797       C  0.11555252  0.60677501  0.88128373     0.35800
C4798       C  0.14770351  0.64539388  0.88179133    -0.20200
C4799       C  0.18587013  0.65132340  0.88253886    -0.25500
C4800       C  0.19273825  0.61949494  0.88251269     0.27200
H4801       H  0.09806084  0.54516083  0.88077929     0.13000
N4802       N  0.07617455  0.60015243  0.88077157    -0.82700
H4803       H  0.21056788  0.68099899  0.88294134     0.17800
N4804       N  0.23199195  0.62590016  0.88313241    -0.81300
H4805       H  0.05593812  0.57006481  0.88042621     0.33500
H4806       H  0.06973927  0.60984285  0.88486716     0.37900
H4807       H  0.25225573  0.65592180  0.88358164     0.33400
H4808       H  0.23313418  0.61257503  0.88724185     0.30100
H4809       H  0.13859213  0.50478778  0.89501367     0.33400
H4810       H  0.16631151  0.55330308  0.89376838     0.30100
H4811       H  0.22993825  0.50564403  0.87023800     0.38000
H4812       H  0.20873208  0.52627990  0.86614569     0.33500
C4813       C  0.23141263  0.93592229  0.76382742    -0.20300
C4814       C  0.20830026  0.95096699  0.76121830     0.35900
C4815       C  0.22127157  0.97403318  0.75585622    -0.26300
C4816       C  0.25554684  0.98100860  0.75279194     0.02400
C4817       C  0.27777993  0.96480223  0.75517731     0.27200
C4818       C  0.26582712  0.94293823  0.76069783    -0.25400
N4819       N  0.17158434  0.94279696  0.76395034    -0.82800
H4820       H  0.20418181  0.98642659  0.75399490     0.13000
C4821       C  0.26711693  0.00509256  0.74705742     0.02300
N4822       N  0.31219083  0.97032709  0.75195677    -0.81300
H4823       H  0.28355574  0.93125295  0.76254256     0.17800
C4824       C  0.30398973  0.03954785  0.74669493    -0.26200
C4825       C  0.31464875  0.06421749  0.74148304     0.35800
C4826       C  0.28770759  0.05425358  0.73655728    -0.20200
C4827       C  0.25087448  0.01988081  0.73694590    -0.25500
C4828       C  0.24056840  0.99490450  0.74208328     0.27200
H4829       H  0.32420124  0.04755092  0.75053998     0.13000
N4830       N  0.35239787  0.09952970  0.74121409    -0.82700
H4831       H  0.23047273  0.01178140  0.73312394     0.17800
N4832       N  0.20345151  0.95881649  0.74223199    -0.81300
H4833       H  0.36874344  0.10243219  0.74518586     0.33500
H4834       H  0.34754143  0.12341818  0.74116737     0.37900
H4835       H  0.18733066  0.95564724  0.73822185     0.33400
H4836       H  0.20938829  0.93563360  0.74226123     0.30100
H4837       H  0.32521790  0.95646983  0.75430131     0.33400
H4838       H  0.30303622  0.95627933  0.74768481     0.30100
H4839       H  0.15173016  0.91287015  0.76327792     0.38000
H4840       H  0.15964863  0.95784590  0.76164850     0.33500
C4841       C  0.32947573  0.15373043  0.64986610    -0.20300
C4842       C  0.36682658  0.17697650  0.65264931     0.35900
C4843       C  0.36970773  0.18167040  0.65909788    -0.26300
C4844       C  0.33626680  0.16379861  0.66288679     0.02400
C4845       C  0.29895115  0.14047130  0.66011393     0.27200
C4846       C  0.29595197  0.13613181  0.65364774    -0.25400
N4847       N  0.40166449  0.19692631  0.64891794    -0.82800
H4848       H  0.39825258  0.20027761  0.66117590     0.13000
C4849       C  0.34074546  0.17076369  0.66971015     0.02300
N4850       N  0.26422478  0.12101201  0.66387485    -0.81300
H4851       H  0.26727406  0.11847017  0.65155114     0.17800
C4852       C  0.31820021  0.18438548  0.67274100    -0.26200
C4853       C  0.32047512  0.19016318  0.67917251     0.35800
C4854       C  0.34607984  0.18225815  0.68271214    -0.20200
C4855       C  0.37039195  0.17092587  0.67961507    -0.25500
C4856       C  0.36759113  0.16451996  0.67319733     0.27200
H4857       H  0.29848164  0.19039681  0.67006466     0.13000
N4858       N  0.29655561  0.20369781  0.68210750    -0.82700
H4859       H  0.39018567  0.16480196  0.68224645     0.17800
N4860       N  0.39093454  0.15033150  0.67024937    -0.81300
H4861       H  0.27885780  0.20736034  0.67887778     0.33500
H4862       H  0.31549081  0.23152282  0.68395039     0.37900
H4863       H  0.40924179  0.14735583  0.67344384     0.33400
H4864       H  0.37170185  0.12213930  0.66856074     0.30100
H4865       H  0.23916995  0.10538606  0.66113458     0.33400
H4866       H  0.26663608  0.10027274  0.66658283     0.30100
H4867       H  0.42667993  0.21230365  0.65167527     0.38000
H4868       H  0.39928620  0.21800041  0.64629596     0.33500
C4869       C  0.36823980  0.27145678  0.59695944    -0.20300
C4870       C  0.39319048  0.26942659  0.59243177     0.35900
C4871       C  0.40306320  0.29331443  0.58716260    -0.26300
C4872       C  0.38893808  0.31945546  0.58628382     0.02400
C4873       C  0.36381541  0.32141205  0.59074354     0.27200
C4874       C  0.35339388  0.29711428  0.59599689    -0.25400
N4875       N  0.40802020  0.24274790  0.59312762    -0.82800
H4876       H  0.42181576  0.29140260  0.58367562     0.13000
C4877       C  0.40101855  0.34443143  0.58064659     0.02300
N4878       N  0.34964782  0.34859320  0.58997983    -0.81300
H4879       H  0.33445650  0.29907419  0.59944183     0.17800
C4880       C  0.37233928  0.34127084  0.57645000    -0.26200
C4881       C  0.38294538  0.36208381  0.57083073     0.35800
C4882       C  0.42321209  0.38696590  0.56941087    -0.20200
C4883       C  0.45176432  0.39048439  0.57368233    -0.25500
C4884       C  0.44113873  0.36960285  0.57927061     0.27200
H4885       H  0.34157250  0.32147308  0.57747987     0.13000
N4886       N  0.35301199  0.35703064  0.56650279    -0.82700
H4887       H  0.48265100  0.40973761  0.57266160     0.17800
N4888       N  0.47095204  0.37364038  0.58354771    -0.81300
H4889       H  0.32501537  0.33793862  0.56827113     0.33500
H4890       H  0.35622715  0.34337824  0.56258227     0.37900
H4891       H  0.49901877  0.39300477  0.58183009     0.33400
H4892       H  0.46765360  0.38636800  0.58757275     0.30100
H4893       H  0.33155078  0.34646041  0.59367139     0.33400
H4894       H  0.37399958  0.37702202  0.59012010     0.30100
H4895       H  0.38397829  0.21419611  0.59286144     0.38000
H4896       H  0.42668346  0.24567556  0.58947516     0.33500
C4897       C  0.65463232  0.49144876  0.70809377    -0.20300
C4898       C  0.63699652  0.46599556  0.71316345     0.35900
C4899       C  0.60292467  0.42935015  0.71222786    -0.26300
C4900       C  0.58633923  0.41755218  0.70634619     0.02400
C4901       C  0.60375548  0.44278815  0.70127380     0.27200
C4902       C  0.63798194  0.47937937  0.70219154    -0.25400
N4903       N  0.65403919  0.47710101  0.71921340    -0.82800
H4904       H  0.58902763  0.40984667  0.71610819     0.13000
C4905       C  0.54912654  0.37977224  0.70572682     0.02300
N4906       N  0.58599721  0.43172739  0.69526853    -0.81300
H4907       H  0.65141902  0.49885857  0.69829470     0.17800
C4908       C  0.51384651  0.37896878  0.70704825    -0.26200
C4909       C  0.47815901  0.34334773  0.70723563     0.35800
C4910       C  0.47748738  0.30761070  0.70605796    -0.20200
C4911       C  0.51278478  0.30862743  0.70449794    -0.25500
C4912       C  0.54875513  0.34443083  0.70437892     0.27200
H4913       H  0.51416576  0.40614291  0.70809633     0.13000
N4914       N  0.44265865  0.34363455  0.70866291    -0.82700
H4915       H  0.51261386  0.28131000  0.70366475     0.17800
N4916       N  0.58502687  0.34485006  0.70321004    -0.81300
H4917       H  0.43910684  0.36132609  0.70541929     0.33500
H4918       H  0.44598854  0.35654190  0.71300240     0.37900
H4919       H  0.57974239  0.31628024  0.70246541     0.33400
H4920       H  0.59685798  0.36026409  0.69911358     0.30100
H4921       H  0.60202357  0.45405360  0.69207205     0.33400
H4922       H  0.58766776  0.40724090  0.69380846     0.30100
H4923       H  0.68154305  0.47893268  0.71907484     0.38000
H4924       H  0.63716971  0.45525674  0.72243110     0.33500
C4925       C  0.96971776  0.81410428  0.71250572    -0.20300
C4926       C  0.98860566  0.84055957  0.70755168     0.35900
C4927       C  0.02733183  0.87141057  0.70829587    -0.26300
C4928       C  0.04754567  0.87749382  0.71388322     0.02400
C4929       C  0.02807162  0.85270060  0.71894073     0.27200
C4930       C  0.98936757  0.82122532  0.71819260    -0.25400
N4931       N  0.96948670  0.83766009  0.70175324    -0.82800
H4932       H  0.04173077  0.89125594  0.70446890     0.13000
C4933       C  0.08894641  0.91026711  0.71430125     0.02300
N4934       N  0.04788614  0.85908669  0.72476384    -0.81300
H4935       H  0.97496265  0.80127060  0.72200551     0.17800
C4936       C  0.09903006  0.94022488  0.71864824    -0.26200
C4937       C  0.13709391  0.97329216  0.71885203     0.35800
C4938       C  0.16581230  0.97689058  0.71450505    -0.20200
C4939       C  0.15580867  0.94584934  0.71031510    -0.25500
C4940       C  0.11780081  0.91279096  0.71015578     0.27200
H4941       H  0.07674425  0.93820804  0.72181536     0.13000
N4942       N  0.14619261  0.00331577  0.72340179    -0.82700
H4943       H  0.17734990  0.94773680  0.70700628     0.17800
N4944       N  0.10807474  0.88209521  0.70570339    -0.81300
H4945       H  0.12140591  0.99683655  0.72604709     0.33500
H4946       H  0.16676861  0.00301618  0.72643267     0.37900
H4947       H  0.13238217  0.88853119  0.70293771     0.33400
H4948       H  0.10110264  0.85636450  0.70811940     0.30100
H4949       H  0.02942108  0.83838074  0.72801145     0.33400
H4950       H  0.07169501  0.85449667  0.72412139     0.30100
H4951       H  0.93972308  0.81651476  0.70189444     0.38000
H4952       H  0.97007185  0.86430868  0.70104052     0.33500
C4953       C  0.70766214  0.75411959  0.76345805    -0.20300
C4954       C  0.74699469  0.76492299  0.76198639     0.35900
C4955       C  0.75511542  0.75238138  0.75638136    -0.26300
C4956       C  0.72488580  0.72843448  0.75228648     0.02400
C4957       C  0.68562039  0.71653117  0.75381533     0.27200
C4958       C  0.67740652  0.72954330  0.75936931    -0.25400
N4959       N  0.77848791  0.78786595  0.76622124    -0.82800
H4960       H  0.78519892  0.76090622  0.75521806     0.13000
C4961       C  0.73504500  0.71651838  0.74637806     0.02300
N4962       N  0.65431645  0.69157998  0.74968928    -0.81300
H4963       H  0.64719824  0.72080928  0.76046796     0.17800
C4964       C  0.72194456  0.67666031  0.74522649    -0.26200
C4965       C  0.73224322  0.66462423  0.73975752     0.35800
C4966       C  0.75617605  0.69317650  0.73534845    -0.20200
C4967       C  0.76905472  0.73307128  0.73653032    -0.25500
C4968       C  0.75828118  0.74492320  0.74194482     0.27200
H4969       H  0.70410849  0.65495767  0.74865880     0.13000
N4970       N  0.71906116  0.62368896  0.73873484    -0.82700
H4971       H  0.78699784  0.75514550  0.73315053     0.17800
N4972       N  0.77026845  0.78563960  0.74292360    -0.81300
H4973       H  0.70123652  0.60657793  0.74237028     0.33500
H4974       H  0.74388468  0.62035462  0.73873873     0.37900
H4975       H  0.78717242  0.80280039  0.73921828     0.33400
H4976       H  0.74482260  0.78790073  0.74300448     0.30100
H4977       H  0.62709005  0.68527860  0.75149953     0.33400
H4978       H  0.65815422  0.70725988  0.74560613     0.30100
H4979       H  0.77367907  0.77090937  0.77018981     0.38000
H4980       H  0.80548028  0.79339060  0.76441426     0.33500
C4981       C  0.99855972  0.82269127  0.62419778    -0.20300
C4982       C  0.00518615  0.84665629  0.62949030     0.35900
C4983       C  0.03992738  0.88333954  0.62995532    -0.26300
C4984       C  0.06746429  0.89796478  0.62516251     0.02400
C4985       C  0.06023827  0.87514014  0.61977334     0.27200
C4986       C  0.02632499  0.83771143  0.61938686    -0.25400
N4987       N  0.97660947  0.83426008  0.63435877    -0.82800
H4988       H  0.04550459  0.90085269  0.63409002     0.13000
C4989       C  0.10408934  0.93686831  0.62588981     0.02300
N4990       N  0.08730751  0.89017836  0.61468971    -0.81300
H4991       H  0.02165007  0.82026584  0.61527260     0.17800
C4992       C  0.14064707  0.93895311  0.62526267    -0.26200
C4993       C  0.17595176  0.97510383  0.62561125     0.35800
C4994       C  0.17482764  0.01018319  0.62654490    -0.20200
C4995       C  0.13844667  0.00798228  0.62753267    -0.25500
C4996       C  0.10298814  0.97163659  0.62720899     0.27200
H4997       H  0.14158663  0.91218538  0.62444541     0.13000
N4998       N  0.21307850  0.97647366  0.62495351    -0.82700
H4999       H  0.13755833  0.03487795  0.62822764     0.17800
N5000       N  0.06589069  0.97006893  0.62804194    -0.81300
H5001       H  0.20886605  0.94822491  0.62429009     0.33500
H5002       H  0.22827859  0.98675865  0.62911692     0.37900
H5003       H  0.07018108  0.99802516  0.62903442     0.33400
H5004       H  0.05069338  0.96133846  0.62385649     0.30100
H5005       H  0.07788523  0.86976990  0.61108453     0.33400
H5006       H  0.08694699  0.91494420  0.61299567     0.30100
H5007       H  0.95177366  0.83406126  0.63256559     0.38000
H5008       H  0.98667895  0.85467577  0.63796543     0.33500
C5009       C  0.49665407  0.33167911  0.61775011    -0.20300
C5010       C  0.50474311  0.36965530  0.61955803     0.35900
C5011       C  0.54357402  0.40128001  0.61931329    -0.26300
C5012       C  0.57437527  0.39580489  0.61729458     0.02400
C5013       C  0.56644355  0.35838581  0.61531538     0.27200
C5014       C  0.52755382  0.32671132  0.61549883    -0.25400
N5015       N  0.47359840  0.37597603  0.62166252    -0.82800
H5016       H  0.55006492  0.43026043  0.62081580     0.13000
C5017       C  0.61514310  0.42905275  0.61770624     0.02300
N5018       N  0.59813943  0.35246377  0.61337305    -0.81300
H5019       H  0.52163875  0.29771436  0.61411614     0.17800
C5020       C  0.63586906  0.43474163  0.62321950    -0.26200
C5021       C  0.67390232  0.46702683  0.62397452     0.35800
C5022       C  0.69158829  0.49404353  0.61908464    -0.20200
C5023       C  0.67110750  0.48769243  0.61349482    -0.25500
C5024       C  0.63267598  0.45568853  0.61279509     0.27200
H5025       H  0.62202270  0.41410772  0.62697374     0.13000
N5026       N  0.69462648  0.47248761  0.62968589    -0.82700
H5027       H  0.68451183  0.50858403  0.60975985     0.17800
N5028       N  0.61080937  0.45092246  0.60723121    -0.81300
H5029       H  0.67730191  0.45037253  0.63283609     0.33500
H5030       H  0.71921026  0.46958896  0.62876320     0.37900
H5031       H  0.62762844  0.47345835  0.60410959     0.33400
H5032       H  0.60531648  0.42464996  0.60514557     0.30100
H5033       H  0.58750598  0.32302062  0.61218611     0.33400
H5034       H  0.61021034  0.36891762  0.60936412     0.30100
H5035       H  0.45441220  0.37022995  0.61795873     0.38000
H5036       H  0.48458963  0.40544208  0.62287195     0.33500
C5037       C  0.83594677  0.65158551  0.65038343    -0.20300
C5038       C  0.83040680  0.61610882  0.65295971     0.35900
C5039       C  0.83437684  0.61329944  0.65932842    -0.26300
C5040       C  0.84411001  0.64534985  0.66322580     0.02400
C5041       C  0.85061297  0.68123618  0.66067852     0.27200
C5042       C  0.84688802  0.68412034  0.65426536    -0.25400
N5043       N  0.82207184  0.58319012  0.64910528    -0.82800
H5044       H  0.82983865  0.58583631  0.66125043     0.13000
C5045       C  0.84541394  0.64014918  0.66998718     0.02300
N5046       N  0.86022197  0.71428346  0.66462332    -0.81300
H5047       H  0.85184409  0.71162603  0.65230353     0.17800
C5048       C  0.88049827  0.66300334  0.67325847    -0.26200
C5049       C  0.88186396  0.66013659  0.67972095     0.35800
C5050       C  0.84713402  0.63419724  0.68297972    -0.20200
C5051       C  0.81278132  0.60963601  0.67960731    -0.25500
C5052       C  0.81144367  0.61264817  0.67317920     0.27200
H5053       H  0.90676540  0.68344433  0.67075758     0.13000
N5054       N  0.91819192  0.68376251  0.68296723    -0.82700
H5055       H  0.78598242  0.58947021  0.68200860     0.17800
N5056       N  0.77524217  0.58892718  0.66989808    -0.81300
H5057       H  0.94075192  0.70133525  0.67989646     0.33500
H5058       H  0.92615383  0.66460707  0.68501061     0.37900
H5059       H  0.75297954  0.57005013  0.67291295     0.33400
H5060       H  0.76632747  0.60783975  0.66804765     0.30100
H5061       H  0.86433552  0.73850731  0.66202719     0.33400
H5062       H  0.83599064  0.70663008  0.66748029     0.30100
H5063       H  0.79560942  0.55912241  0.65058048     0.38000
H5064       H  0.84440139  0.57635211  0.64974037     0.33500
C5065       C  0.96405729  0.57182601  0.56906101    -0.20300
C5066       C  0.92627597  0.56704789  0.57004611     0.35900
C5067       C  0.91806345  0.57958421  0.57562378    -0.26300
C5068       C  0.94690695  0.59739784  0.58017368     0.02400
C5069       C  0.98486638  0.60312710  0.57918781     0.27200
C5070       C  0.99320699  0.59050825  0.57360622    -0.25400
N5071       N  0.89657141  0.55009720  0.56534792    -0.82800
H5072       H  0.88896441  0.57537888  0.57645071     0.13000
C5073       C  0.93588709  0.60772075  0.58608646     0.02300
N5074       N  0.01423261  0.62047584  0.58393508    -0.81300
H5075       H  0.02221532  0.59430698  0.57286813     0.17800
C5076       C  0.91938961  0.57882914  0.59066385    -0.26200
C5077       C  0.90623216  0.58628043  0.59623886     0.35800
C5078       C  0.90979049  0.62351953  0.59722757    -0.20200
C5079       C  0.92693046  0.65268449  0.59266437    -0.25500
C5080       C  0.93948492  0.64488691  0.58703842     0.27200
H5081       H  0.91649883  0.55024735  0.58984606     0.13000
N5082       N  0.88959542  0.55633312  0.60091613    -0.82700
H5083       H  0.92939291  0.68113638  0.59342057     0.17800
N5084       N  0.95439381  0.67384498  0.58220784    -0.81300
H5085       H  0.88882902  0.53060290  0.59943261     0.33500
H5086       H  0.90832069  0.56643006  0.60473927     0.37900
H5087       H  0.95440322  0.69935146  0.58360832     0.33400
H5088       H  0.98373366  0.68185728  0.58142947     0.30100
H5089       H  0.04046434  0.62209723  0.58251621     0.33400
H5090       H  0.02046085  0.64942709  0.58457544     0.30100
H5091       H  0.90633438  0.56926392  0.56157758     0.38000
H5092       H  0.87042964  0.54840136  0.56684287     0.33500
C5093       C  0.81362658  0.81721096  0.71298765    -0.20300
C5094       C  0.84493351  0.84844960  0.71627548     0.35900
C5095       C  0.84795090  0.88558932  0.71635265    -0.26300
C5096       C  0.82076294  0.89229960  0.71320940     0.02400
C5097       C  0.78891743  0.86123611  0.71010789     0.27200
C5098       C  0.78580549  0.82405703  0.70998427    -0.25400
N5099       N  0.87420915  0.84291475  0.71938020    -0.82800
H5100       H  0.87237049  0.90985056  0.71871338     0.13000
C5101       C  0.82713521  0.93256532  0.71294053     0.02300
N5102       N  0.75993671  0.86770209  0.70710963    -0.81300
H5103       H  0.76144253  0.80032176  0.70753565     0.17800
C5104       C  0.83491069  0.95147702  0.70721504    -0.26200
C5105       C  0.84075419  0.98951778  0.70672625     0.35800
C5106       C  0.83849881  0.00889621  0.71204467    -0.20200
C5107       C  0.83205866  0.99048223  0.71781515    -0.25500
C5108       C  0.82617428  0.95225157  0.71831062     0.27200
H5109       H  0.83656116  0.93662216  0.70310812     0.13000
N5110       N  0.84966859  0.00867481  0.70084275    -0.82700
H5111       H  0.83028313  0.00539180  0.72190447     0.17800
N5112       N  0.81854439  0.93302887  0.72420184    -0.81300
H5113       H  0.87529286  0.01001167  0.69916835     0.33500
H5114       H  0.82667742  0.99137685  0.69781801     0.37900
H5115       H  0.81896223  0.95161391  0.72769216     0.33400
H5116       H  0.79001109  0.90884595  0.72408271     0.30100
H5117       H  0.73827590  0.84177980  0.70504764     0.33400
H5118       H  0.74584963  0.87500760  0.71052089     0.30100
H5119       H  0.89051254  0.83833734  0.71600214     0.38000
H5120       H  0.89405879  0.86838011  0.72175880     0.33500
C5121       C  0.83672573  0.32559866  0.70834248    -0.20300
C5122       C  0.86447405  0.36127280  0.71115386     0.35900
C5123       C  0.86044797  0.39467467  0.71047188    -0.26300
C5124       C  0.82918840  0.39311894  0.70709991     0.02400
C5125       C  0.80173602  0.35777889  0.70422652     0.27200
C5126       C  0.80606867  0.32452244  0.70481090    -0.25400
N5127       N  0.89659414  0.36357398  0.71467345    -0.82800
H5128       H  0.88144385  0.42204913  0.71266586     0.13000
C5129       C  0.82404335  0.42799846  0.70707662     0.02300
N5130       N  0.76897888  0.35550561  0.70089404    -0.81300
H5131       H  0.78447475  0.29719064  0.70267553     0.17800
C5132       C  0.82682716  0.44781648  0.70154560    -0.26200
C5133       C  0.82400537  0.48227938  0.70151273     0.35800
C5134       C  0.81816808  0.49684075  0.70714686    -0.20200
C5135       C  0.81444547  0.47613068  0.71262457    -0.25500
C5136       C  0.81740979  0.44204995  0.71265177     0.27200
H5137       H  0.83212359  0.43684621  0.69727879     0.13000
N5138       N  0.82905513  0.50338500  0.69585783    -0.82700
H5139       H  0.80946718  0.48682263  0.71694559     0.17800
N5140       N  0.81424248  0.42182772  0.71834095    -0.81300
H5141       H  0.83585092  0.49015035  0.69224382     0.33500
H5142       H  0.80196536  0.50081575  0.69473871     0.37900
H5143       H  0.80990336  0.43624719  0.72205098     0.33400
H5144       H  0.78916023  0.39395528  0.71806000     0.30100
H5145       H  0.75144460  0.32731560  0.69906515     0.33400
H5146       H  0.75142493  0.35992300  0.70405264     0.30100
H5147       H  0.91466010  0.35911829  0.71162987     0.38000
H5148       H  0.91380408  0.39174648  0.71652567     0.33500
C5149       C  0.16391758  0.13563948  0.71147635    -0.20300
C5150       C  0.16398077  0.16983472  0.70939258     0.35900
C5151       C  0.12939077  0.17196762  0.70979607    -0.26300
C5152       C  0.09472930  0.14059371  0.71216759     0.02400
C5153       C  0.09421008  0.10609624  0.71412947     0.27200
C5154       C  0.12908825  0.10419406  0.71386391    -0.25400
N5155       N  0.19924521  0.20240162  0.70692079    -0.82800
H5156       H  0.12932403  0.19816894  0.70822993     0.13000
C5157       C  0.05893019  0.14408405  0.71231198     0.02300
N5158       N  0.05804857  0.07278552  0.71617725    -0.81300
H5159       H  0.12890518  0.07779227  0.71538535     0.17800
C5160       C  0.03571130  0.13475238  0.70699112    -0.26200
C5161       C  0.00275517  0.13987060  0.70679127     0.35800
C5162       C  0.99340698  0.15522194  0.71199413    -0.20200
C5163       C  0.01630831  0.16399047  0.71734731    -0.25500
C5164       C  0.04918688  0.15871538  0.71755399     0.27200
H5165       H  0.04347263  0.12356166  0.70298441     0.13000
N5166       N  0.97841954  0.12903470  0.70137246    -0.82700
H5167       H  0.00889537  0.17563954  0.72132929     0.17800
N5168       N  0.07328235  0.16910452  0.72299219    -0.81300
H5169       H  0.98934339  0.11818373  0.69796623     0.33500
H5170       H  0.95063523  0.10584793  0.70257896     0.37900
H5171       H  0.06258798  0.18034014  0.72637460     0.33400
H5172       H  0.07084167  0.14331919  0.72480794     0.30100
H5173       H  0.06245129  0.04935102  0.71729920     0.33400
H5174       H  0.04944535  0.08070110  0.72023694     0.30100
H5175       H  0.21999194  0.21386552  0.71047445     0.38000
H5176       H  0.19415056  0.22497065  0.70552033     0.33500
C5177       C  0.67147666  0.15457936  0.70714034    -0.20300
C5178       C  0.63616445  0.11851125  0.70786403     0.35900
C5179       C  0.60025869  0.11794147  0.70809312    -0.26300
C5180       C  0.59901183  0.15288160  0.70768642     0.02400
C5181       C  0.63397137  0.18891839  0.70672899     0.27200
C5182       C  0.67001892  0.18939820  0.70641640    -0.25400
N5183       N  0.63670476  0.08239717  0.70840512    -0.82800
H5184       H  0.57328466  0.09019365  0.70875680     0.13000
C5185       C  0.56085425  0.15117045  0.70845523     0.02300
N5186       N  0.63270109  0.22478878  0.70619919    -0.81300
H5187       H  0.69714390  0.21716039  0.70588486     0.17800
C5188       C  0.55286986  0.16436416  0.71398537    -0.26200
C5189       C  0.51638297  0.16215926  0.71494541     0.35800
C5190       C  0.48786447  0.14707943  0.71021097    -0.20200
C5191       C  0.49594786  0.13356573  0.70471308    -0.25500
C5192       C  0.53200338  0.13498440  0.70382117     0.27200
H5193       H  0.57512063  0.17615531  0.71756300     0.13000
N5194       N  0.50844361  0.17558402  0.72064740    -0.82700
H5195       H  0.47388352  0.12162621  0.70110933     0.17800
N5196       N  0.53944021  0.11989536  0.69825326    -0.81300
H5197       H  0.53227781  0.18517831  0.72366733     0.33500
H5198       H  0.50550652  0.20007515  0.71966172     0.37900
H5199       H  0.51493741  0.10846147  0.69534200     0.33400
H5200       H  0.56237263  0.14352784  0.69591778     0.30100
H5201       H  0.66105598  0.24880877  0.70563705     0.33400
H5202       H  0.61718500  0.22290227  0.70217394     0.30100
H5203       H  0.62369651  0.06935580  0.71260950     0.38000
H5204       H  0.61935467  0.06362631  0.70486835     0.33500
C5205       C  0.05060355  0.28460615  0.76299960    -0.20300
C5206       C  0.04964807  0.31255886  0.75895387     0.35900
C5207       C  0.02681193  0.29966490  0.75353611    -0.26300
C5208       C  0.00417551  0.25957293  0.75210014     0.02400
C5209       C  0.00447352  0.23161262  0.75614228     0.27200
C5210       C  0.02781165  0.24435135  0.76149823    -0.25400
N5211       N  0.07229961  0.35395861  0.76025570    -0.82800
H5212       H  0.02662051  0.32105423  0.75039694     0.13000
C5213       C  0.98063372  0.24721855  0.74630646     0.02300
N5214       N  0.98080383  0.19032177  0.75480587    -0.81300
H5215       H  0.02769108  0.22248549  0.76456117     0.17800
C5216       C  0.98887104  0.22659808  0.74182490    -0.26200
C5217       C  0.96700132  0.21373088  0.73632575     0.35800
C5218       C  0.93622607  0.22202692  0.73524563    -0.20200
C5219       C  0.92861885  0.24342140  0.73969512    -0.25500
C5220       C  0.95024059  0.25579532  0.74522929     0.27200
H5221       H  0.01258157  0.22052030  0.74263234     0.13000
N5222       N  0.97708264  0.19367967  0.73175736    -0.82700
H5223       H  0.90513405  0.24984154  0.73890416     0.17800
N5224       N  0.94114023  0.27660487  0.74979490    -0.81300
H5225       H  0.00319811  0.19427570  0.73295105     0.33500
H5226       H  0.95521293  0.16404181  0.73182309     0.37900
H5227       H  0.91819935  0.28080964  0.74828379     0.33400
H5228       H  0.93087419  0.25877429  0.75371461     0.30100
H5229       H  0.98430940  0.17352815  0.75822341     0.33400
H5230       H  0.95131958  0.18314794  0.75494410     0.30100
H5231       H  0.05860093  0.35961933  0.76392859     0.38000
H5232       H  0.07120085  0.37038509  0.75654452     0.33500
C5233       C  0.47958008  0.15981238  0.61836315    -0.20300
C5234       C  0.47878229  0.12630967  0.62096021     0.35900
C5235       C  0.51251874  0.12264749  0.62068970    -0.26300
C5236       C  0.54715843  0.15153117  0.61789062     0.02400
C5237       C  0.54768563  0.18422337  0.61507203     0.27200
C5238       C  0.51374219  0.18789486  0.61529618    -0.25400
N5239       N  0.44376860  0.09612063  0.62389329    -0.82800
H5240       H  0.51204098  0.09725683  0.62275475     0.13000
C5241       C  0.58287382  0.14756444  0.61825932     0.02300
N5242       N  0.58294164  0.21404683  0.61215760    -0.81300
H5243       H  0.51450332  0.21355214  0.61328651     0.17800
C5244       C  0.60088788  0.14461216  0.61285566    -0.26200
C5245       C  0.63364664  0.13898841  0.61312230     0.35800
C5246       C  0.64826780  0.13571510  0.61892526    -0.20200
C5247       C  0.63015423  0.13879256  0.62431267    -0.25500
C5248       C  0.59811488  0.14532714  0.62404112     0.27200
H5249       H  0.58902984  0.14622877  0.60842360     0.13000
N5250       N  0.65181361  0.13623432  0.60753330    -0.82700
H5251       H  0.64181157  0.13726155  0.62876900     0.17800
N5252       N  0.58120686  0.15023113  0.62961808    -0.81300
H5253       H  0.63771521  0.13952422  0.60367758     0.33500
H5254       H  0.64782979  0.10784917  0.60730712     0.37900
H5255       H  0.59592621  0.14805689  0.63348401     0.33400
H5256       H  0.58564768  0.17882456  0.62961420     0.30100
H5257       H  0.57846981  0.23615489  0.61032353     0.33400
H5258       H  0.60446956  0.22729555  0.61557123     0.30100
H5259       H  0.42197960  0.08316524  0.62051068     0.38000
H5260       H  0.44830653  0.07385512  0.62563578     0.33500
C5261       C  0.17120832  0.17896338  0.62478693    -0.20300
C5262       C  0.14706334  0.17643149  0.61975764     0.35900
C5263       C  0.10993816  0.17243328  0.62088374    -0.26300
C5264       C  0.09603512  0.17078134  0.62689994     0.02400
C5265       C  0.12005380  0.17378126  0.63193267     0.27200
C5266       C  0.15731989  0.17784778  0.63082846    -0.25400
N5267       N  0.15964232  0.17679949  0.61352239    -0.82800
H5268       H  0.09131524  0.17005903  0.61702563     0.13000
C5269       C  0.05684798  0.16757694  0.62772564     0.02300
N5270       N  0.10661513  0.17283801  0.63812837    -0.81300
H5271       H  0.17561529  0.18009508  0.63472369     0.17800
C5272       C  0.02548433  0.13391946  0.63043195    -0.26200
C5273       C  0.98679555  0.12786305  0.63036254     0.35800
C5274       C  0.97967191  0.15636924  0.62760219    -0.20200
C5275       C  0.01171425  0.19096857  0.62523810    -0.25500
C5276       C  0.04998261  0.19679421  0.62526812     0.27200
H5277       H  0.03087008  0.11147166  0.63231817     0.13000
N5278       N  0.95471018  0.09224198  0.63282511    -0.82700
H5279       H  0.00674679  0.21333293  0.62319894     0.17800
N5280       N  0.08195518  0.23190755  0.62265055    -0.81300
H5281       H  0.96498583  0.07455999  0.63472271     0.33500
H5282       H  0.93635456  0.07637114  0.62914974     0.37900
H5283       H  0.07201715  0.25027920  0.62092344     0.33400
H5284       H  0.10165566  0.24732763  0.62621284     0.30100
H5285       H  0.12774814  0.17527751  0.64130984     0.33400
H5286       H  0.10359890  0.19764095  0.63872978     0.30100
H5287       H  0.16071784  0.15096237  0.61286014     0.38000
H5288       H  0.13891060  0.17579886  0.61038803     0.33500
C5289       C  0.84504485  0.48902378  0.61820400    -0.20300
C5290       C  0.80827596  0.45665856  0.61639512     0.35900
C5291       C  0.80319498  0.41855163  0.61636027    -0.26300
C5292       C  0.83367539  0.41196620  0.61814435     0.02400
C5293       C  0.87056432  0.44404088  0.61978228     0.27200
C5294       C  0.87584925  0.48225011  0.61981138    -0.25400
N5295       N  0.77576275  0.46222966  0.61482014    -0.82800
H5296       H  0.77494426  0.39362599  0.61511456     0.13000
C5297       C  0.82573500  0.37101481  0.61862069     0.02300
N5298       N  0.90247715  0.43765645  0.62139901    -0.81300
H5299       H  0.90406917  0.50684330  0.62114860     0.17800
C5300       C  0.83178519  0.35296635  0.61348990    -0.26200
C5301       C  0.82521160  0.31429717  0.61385926     0.35800
C5302       C  0.81239317  0.29354481  0.61948927    -0.20200
C5303       C  0.80538002  0.31144534  0.62455959    -0.25500
C5304       C  0.81173129  0.34991052  0.62417325     0.27200
H5305       H  0.84215620  0.36932973  0.60922148     0.13000
N5306       N  0.83249870  0.29651330  0.60860523    -0.82700
H5307       H  0.79512389  0.29537206  0.62885619     0.17800
N5308       N  0.80384685  0.36760797  0.62937989    -0.81300
H5309       H  0.84151217  0.31560790  0.60482756     0.33500
H5310       H  0.85599726  0.29216864  0.60970605     0.37900
H5311       H  0.79285429  0.34783459  0.63306690     0.33400
H5312       H  0.83059460  0.39125469  0.63085601     0.30100
H5313       H  0.92783790  0.46439474  0.62238236     0.33400
H5314       H  0.89483364  0.42118095  0.62546448     0.30100
H5315       H  0.76756889  0.47132084  0.61880769     0.38000
H5316       H  0.75128451  0.43561614  0.61349193     0.33500
C5317       C  0.81631039  0.97626489  0.62515092    -0.20300
C5318       C  0.81886524  0.96168341  0.63101618     0.35900
C5319       C  0.82275054  0.92798001  0.63141690    -0.26300
C5320       C  0.82351588  0.90805117  0.62612035     0.02400
C5321       C  0.82092289  0.92223200  0.62027236     0.27200
C5322       C  0.81695418  0.95589697  0.61984429    -0.25400
N5323       N  0.81665095  0.98049583  0.63656195    -0.82800
H5324       H  0.82447790  0.91668777  0.63589505     0.13000
C5325       C  0.82572097  0.87154258  0.62676510     0.02300
N5326       N  0.82293253  0.90266798  0.61479610    -0.81300
H5327       H  0.81527272  0.96676537  0.61532855     0.17800
C5328       C  0.79237659  0.83537576  0.62539872    -0.26200
C5329       C  0.79374436  0.80038731  0.62559687     0.35800
C5330       C  0.82903453  0.80125534  0.62723857    -0.20200
C5331       C  0.86191155  0.83727561  0.62891323    -0.25500
C5332       C  0.86070302  0.87258517  0.62862354     0.27200
H5333       H  0.76529424  0.83440100  0.62405485     0.13000
N5334       N  0.75930795  0.76398345  0.62402614    -0.82700
H5335       H  0.88917562  0.83818884  0.63009733     0.17800
N5336       N  0.89511675  0.90961202  0.63001239    -0.81300
H5337       H  0.73658217  0.75990800  0.62699329     0.33500
H5338       H  0.75108323  0.76638781  0.61953216     0.37900
H5339       H  0.91844558  0.90537660  0.63128072     0.33400
H5340       H  0.90371228  0.92625031  0.62595787     0.30100
H5341       H  0.82050938  0.91667006  0.61085652     0.33400
H5342       H  0.85090620  0.90557547  0.61465512     0.30100
H5343       H  0.78844753  0.97698011  0.63676574     0.38000
H5344       H  0.81961377  0.96650020  0.64045846     0.33500
C5345       C  0.82564149  0.15171135  0.65059172    -0.20300
C5346       C  0.79551566  0.15776272  0.65296435     0.35900
C5347       C  0.78740555  0.15341402  0.65929706    -0.26300
C5348       C  0.80899473  0.14365719  0.66334542     0.02400
C5349       C  0.83930988  0.13783090  0.66100088     0.27200
C5350       C  0.84688310  0.14126513  0.65461783    -0.25400
N5351       N  0.77228913  0.16694223  0.64890317    -0.82800
H5352       H  0.76381887  0.15732894  0.66109487     0.13000
C5353       C  0.79985487  0.14049392  0.67003927     0.02300
N5354       N  0.86255758  0.12899980  0.66511815    -0.81300
H5355       H  0.86978360  0.13637957  0.65278567     0.17800
C5356       C  0.78893378  0.10522049  0.67316253    -0.26200
C5357       C  0.78203209  0.10198310  0.67954886     0.35800
C5358       C  0.78631198  0.13477323  0.68293298    -0.20200
C5359       C  0.79452790  0.16912371  0.67968204    -0.25500
C5360       C  0.80169994  0.17245988  0.67330503     0.27200
H5361       H  0.78623344  0.08014955  0.67063660     0.13000
N5362       N  0.77104158  0.06541230  0.68255634    -0.82700
H5363       H  0.79765572  0.19448416  0.68215857     0.17800
N5364       N  0.81225931  0.20872175  0.67017062    -0.81300
H5365       H  0.74508605  0.04358538  0.68052448     0.33500
H5366       H  0.79308161  0.05838497  0.68174422     0.37900
H5367       H  0.81216723  0.22931155  0.67322030     0.33400
H5368       H  0.84117550  0.22048647  0.66860247     0.30100
H5369       H  0.88350478  0.12545776  0.66266056     0.33400
H5370       H  0.87816386  0.15339897  0.66798882     0.30100
H5371       H  0.75634002  0.14239822  0.64609096     0.38000
H5372       H  0.75162147  0.17082051  0.65138123     0.33500
C5373       C  0.72161632  0.07530455  0.59749847    -0.20300
C5374       C  0.68620761  0.03925546  0.59686645     0.35900
C5375       C  0.66628909  0.02997937  0.59120077    -0.26300
C5376       C  0.68106946  0.05609793  0.58620262     0.02400
C5377       C  0.71729696  0.09143736  0.58677416     0.27200
C5378       C  0.73711408  0.10080232  0.59244462    -0.25400
N5379       N  0.66986374  0.01302765  0.60203375    -0.82800
H5380       H  0.63835661  0.00296079  0.59074119     0.13000
C5381       C  0.65705192  0.04702779  0.58053289     0.02300
N5382       N  0.73349103  0.11776166  0.58161640    -0.81300
H5383       H  0.76464366  0.12822763  0.59294917     0.17800
C5384       C  0.64454839  0.07307071  0.57860466    -0.26200
C5385       C  0.62097051  0.06539161  0.57333643     0.35800
C5386       C  0.60883023  0.03013199  0.56996249    -0.20200
C5387       C  0.62127611  0.00393193  0.57199757    -0.25500
C5388       C  0.64548010  0.01220088  0.57719784     0.27200
H5389       H  0.65331096  0.09965010  0.58124290     0.13000
N5390       N  0.60929101  0.09326161  0.57148325    -0.82700
H5391       H  0.61263705  0.97699517  0.56947733     0.17800
N5392       N  0.65860006  0.98551807  0.57909219    -0.81300
H5393       H  0.61788500  0.11559711  0.57476568     0.33500
H5394       H  0.62491464  0.10703633  0.56747470     0.37900
H5395       H  0.64737041  0.96110050  0.57616627     0.33400
H5396       H  0.68920574  0.00015808  0.57862469     0.30100
H5397       H  0.76024806  0.14249068  0.58281655     0.33400
H5398       H  0.73974081  0.10306891  0.57816864     0.30100
H5399       H  0.66234547  0.02729780  0.60538354     0.38000
H5400       H  0.64375118  0.98772875  0.60077500     0.33500
loop_ 
_geom_bond_atom_site_label_1 
_geom_bond_atom_site_label_2 
_geom_bond_distance 
_geom_bond_site_symmetry_2 
_ccdc_geom_bond_type 
Zr1           O2   2.439       .  S
Zr1           O3   2.425       .  S
Zr1           O4   2.425       .  S
Zr1           O7   2.434       .  S
Zr1           O9   2.386       .  S
Zr1          O10   2.379       .  S
Zr1          O11   2.401       .  S
Zr1          O12   2.395       .  S
O2           H58   0.990       .  S
O2           H66   0.990       .  S
O3           C23   1.282       .  A
O4           C25   1.283       .  A
O5          Zr15   2.432       .  S
O5           C24   1.284       .  A
O6          Zr14   2.424       .  S
O6           C25   1.283       .  A
O7           C24   1.285       .  A
O8          Zr16   2.443       .  S
O8           C23   1.286       .  A
O9          Zr14   2.392       .  S
O9          Zr16   2.363       .  S
O10         Zr15   2.385       .  S
O10         Zr16   2.379       .  S
O10          H45   0.965       .  S
O11         Zr14   2.398       .  S
O11         Zr31   2.393       .  S
O11          H48   0.966       .  S
O12         Zr15   2.390       .  S
O12         Zr31   2.388       .  S
Zr13         O38   2.440       .  S
Zr13         O32   2.469       .  S
Zr13         O40   2.448       .  S
Zr13         O28   2.446       .  S
Zr13         O19   2.401       .  S
Zr13         O20   2.427       .  S
Zr13         O21   2.379       .  S
Zr13         O22   2.384       .  S
Zr14         O33   2.435       .  S
Zr14         O26   2.435       .  S
Zr14         O27   2.432       .  S
Zr14         O20   2.396       .  S
Zr14         O21   2.397       .  S
Zr15         O17   2.436       .  S
Zr15         O39   2.439       .  S
Zr15         O41   2.428       .  S
Zr15         O19   2.381       .  S
Zr15         O22   2.393       .  S
Zr16         O42   2.433       .  S
Zr16         O43   2.436       .  S
Zr16         O18   2.436       .  S
Zr16         O19   2.386       .  S
Zr16         O20   2.420       .  S
O17          H54   0.990       .  S
O18          H49   0.991       .  S
O18          H63   0.990       .  S
O20          H46   0.966       .  S
O21         Zr31   2.384       .  S
O22         Zr31   2.391       .  S
O22          H47   0.966       .  S
C23        C5246   1.486       .  S
C24        C5302   1.480       .  S
C25        C5373   1.468       .  S
O26          H62   0.990   1_545  S
O27          C29   1.284       .  A
O28          C29   1.285       .  A
C29        C5317   1.495   1_545  S
O30         Zr31   2.438       .  S
O30          H59   0.990       .  S
Zr31         O34   2.435       .  S
Zr31         O35   2.440       .  S
Zr31         O36   2.397       .  S
O32          C37   1.289       .  A
O33          H50   0.990       .  S
O33          H65   0.990       .  S
O34          H51   0.990       .  S
O35          H55   0.990       .  S
O35          H64   0.990       .  S
O36          C37   1.278       .  A
C37        C5274   1.490       .  S
O38          H57   0.991       .  S
O38          H61   0.990       .  S
O39          H53   0.990       .  S
O39          H60   0.990       .  S
O40          C44   1.287       .  A
O41          C44   1.284       .  A
O42          H52   0.990       .  S
O43          H56   0.990       .  S
C44        C5345   1.478       .  S
Zr67         O68   2.443       .  S
Zr67         O69   2.444       .  S
Zr67         O70   2.451       .  S
Zr67         O73   2.412       .  S
Zr67         O75   2.377       .  S
Zr67         O76   2.383       .  S
Zr67         O77   2.402       .  S
Zr67         O78   2.411       .  S
O68         H124   0.991       .  S
O68         H132   0.990       .  S
O69          C89   1.285       .  A
O70          C91   1.287       .  A
O71         Zr81   2.437       .  S
O71          C90   1.286       .  A
O72         Zr80   2.426       .  S
O72          C91   1.282       .  A
O73          C90   1.281       .  A
O74         Zr82   2.406       .  S
O74          C89   1.279       .  A
O75         Zr80   2.393       .  S
O75         Zr82   2.388       .  S
O76         Zr81   2.394       .  S
O76         Zr82   2.372       .  S
O76         H111   0.966       .  S
O77         Zr80   2.400       .  S
O77         Zr97   2.381       .  S
O77         H114   0.965       .  S
O78         Zr81   2.400       .  S
O78         Zr97   2.403       .  S
Zr79        O104   2.441       .  S
Zr79         O98   2.424       .  S
Zr79        O106   2.426       .  S
Zr79         O94   2.423       .  S
Zr79         O85   2.397       .  S
Zr79         O86   2.401       .  S
Zr79         O87   2.374       .  S
Zr79         O88   2.382       .  S
Zr80         O99   2.439       .  S
Zr80         O92   2.435       .  S
Zr80         O93   2.415       .  S
Zr80         O86   2.398       .  S
Zr80         O87   2.386       .  S
Zr81         O83   2.435       .  S
Zr81        O105   2.437       .  S
Zr81        O107   2.456       .  S
Zr81         O85   2.392       .  S
Zr81         O88   2.392       .  S
Zr82        O108   2.437       .  S
Zr82        O109   2.436       .  S
Zr82         O84   2.436       .  S
Zr82         O85   2.398       .  S
Zr82         O86   2.383       .  S
O83         H120   0.990       .  S
O84         H115   0.990       .  S
O84         H129   0.990       .  S
O86         H112   0.966       .  S
O87         Zr97   2.368       .  S
O88         Zr97   2.365       .  S
O88         H113   0.965       .  S
C89        C5177   1.475       .  S
C90        C5121   1.482       .  S
C91        C5358   1.493       .  S
O92         H128   0.990       .  S
O93          C95   1.283       .  A
O94          C95   1.283       .  A
C95        C5106   1.468       .  S
O96         Zr97   2.437       .  S
O96         H125   0.991       .  S
Zr97        O100   2.435       .  S
Zr97        O101   2.438       .  S
Zr97        O102   2.430       .  S
O98         C103   1.282       .  A
O99         H116   0.990       .  S
O99         H131   0.990       .  S
O100        H117   0.990       .  S
O101        H121   0.990       .  S
O101        H130   0.990       .  S
O102        C103   1.283       .  A
C103       C5162   1.473       .  S
O104        H123   0.990       .  S
O104        H127   0.990       .  S
O105        H119   0.990       .  S
O105        H126   0.990       .  S
O106        C110   1.284       .  A
O107        C110   1.290       .  A
O108        H118   0.990       .  S
O109        H122   0.990       .  S
C110       C5218   1.490       .  S
Zr133       O134   2.438       .  S
Zr133       O135   2.414       .  S
Zr133       O136   2.424       .  S
Zr133       O139   2.422       .  S
Zr133       O141   2.383       .  S
Zr133       O142   2.385       .  S
Zr133       O143   2.398       .  S
Zr133       O144   2.392       .  S
O134        H190   0.990       .  S
O134        H198   0.990       .  S
O135        C155   1.281       .  A
O136        C157   1.283       .  A
O137       Zr147   2.437       .  S
O137        C156   1.285       .  A
O138       Zr146   2.427       .  S
O138        C157   1.284       .  A
O139        C156   1.283       .  A
O140       Zr148   2.454       .  S
O140        C155   1.289       .  A
O141       Zr146   2.396       .  S
O141       Zr148   2.364       .  S
O142       Zr147   2.385       .  S
O142       Zr148   2.378       .  S
O142        H177   0.965       .  S
O143       Zr146   2.401       .  S
O143       Zr163   2.395       .  S
O143        H180   0.966       .  S
O144       Zr147   2.389       .  S
O144       Zr163   2.382       .  S
Zr145       O170   2.439       .  S
Zr145       O164   2.465       .  S
Zr145       O172   2.441       .  S
Zr145       O160   2.430       .  S
Zr145       O151   2.395       .  S
Zr145       O152   2.420       .  S
Zr145       O153   2.376       .  S
Zr145       O154   2.381       .  S
Zr146       O165   2.436       .  S
Zr146       O158   2.437       .  S
Zr146       O159   2.440       .  S
Zr146       O152   2.400       .  S
Zr146       O153   2.390       .  S
Zr147       O149   2.435       .  S
Zr147       O171   2.439       .  S
Zr147       O173   2.435       .  S
Zr147       O151   2.376       .  S
Zr147       O154   2.393       .  S
Zr148       O174   2.434       .  S
Zr148       O175   2.435       .  S
Zr148       O150   2.437       .  S
Zr148       O151   2.384       .  S
Zr148       O152   2.422       .  S
O149        H186   0.990       .  S
O150        H181   0.990       .  S
O150        H195   0.990       .  S
O152        H178   0.966       .  S
O153       Zr163   2.378       .  S
O154       Zr163   2.395       .  S
O154        H179   0.966       .  S
C155       C5289   1.488       .  S
C156       C5022   1.479       .  S
C157       C5078   1.474       .  S
O158        H194   0.990       .  S
O159        C161   1.286       .  A
O160        C161   1.281       .  A
C161       C4981   1.501       .  S
O162       Zr163   2.441       .  S
O162        H191   0.990       .  S
Zr163       O166   2.438       .  S
Zr163       O167   2.441       .  S
Zr163       O168   2.395       .  S
O164        C169   1.289       .  A
O165        H182   0.990       .  S
O165        H197   0.990       .  S
O166        H183   0.990       .  S
O167        H187   0.990       .  S
O167        H196   0.990       .  S
O168        C169   1.277       .  A
C169       C5330   1.482       .  S
O170        H189   0.990       .  S
O170        H193   0.990       .  S
O171        H185   0.990       .  S
O171        H192   0.990       .  S
O172        C176   1.285       .  A
O173        C176   1.285       .  A
O174        H184   0.990       .  S
O175        H188   0.990       .  S
C176       C5037   1.483       .  S
Zr199       O200   2.441       .  S
Zr199       O201   2.443       .  S
Zr199       O202   2.436       .  S
Zr199       O205   2.419       .  S
Zr199       O207   2.381       .  S
Zr199       O208   2.381       .  S
Zr199       O209   2.407       .  S
Zr199       O210   2.411       .  S
O200        H256   0.990       .  S
O200        H264   0.990       .  S
O201        C221   1.284       .  A
O202        C223   1.285       .  A
O203       Zr213   2.441       .  S
O203        C222   1.287       .  A
O204       Zr212   2.435       .  S
O204        C223   1.284       .  A
O205        C222   1.282       .  A
O206       Zr214   2.413       .  S
O206        C221   1.281       .  A
O207       Zr212   2.398       .  S
O207       Zr214   2.386       .  S
O208       Zr213   2.387       .  S
O208       Zr214   2.368       .  S
O208        H243   0.966       .  S
O209       Zr212   2.400       .  S
O209       Zr229   2.386       .  S
O209        H246   0.965       .  S
O210       Zr213   2.396       .  S
O210       Zr229   2.401       .  S
Zr211       O236   2.442       .  S
Zr211       O230   2.413       .  S
Zr211       O238   2.420       .  S
Zr211       O226   2.439       .  S
Zr211       O217   2.401       .  S
Zr211       O218   2.394       .  S
Zr211       O219   2.374       .  S
Zr211       O220   2.384       .  S
Zr212       O231   2.437       .  S
Zr212       O224   2.433       .  S
Zr212       O225   2.433       .  S
Zr212       O218   2.395       .  S
Zr212       O219   2.386       .  S
Zr213       O215   2.436       .  S
Zr213       O237   2.435       .  S
Zr213       O239   2.446       .  S
Zr213       O217   2.396       .  S
Zr213       O220   2.391       .  S
Zr214       O240   2.437       .  S
Zr214       O241   2.434       .  S
Zr214       O216   2.435       .  S
Zr214       O217   2.396       .  S
Zr214       O218   2.388       .  S
O215        H252   0.990       .  S
O216        H247   0.990       .  S
O216        H261   0.990       .  S
O218        H244   0.966       .  S
O219       Zr229   2.376       .  S
O220       Zr229   2.365       .  S
O220        H245   0.966       .  S
C221       C5134   1.484       .  S
C222       C4897   1.482       .  S
C223       C5050   1.491       .  S
O224        H260   0.990       .  S
O225        C227   1.286       .  A
O226        C227   1.286       .  A
C227       C4925   1.483       .  S
O228       Zr229   2.439       .  S
O228        H257   0.990       .  S
Zr229       O232   2.437       .  S
Zr229       O233   2.441       .  S
Zr229       O234   2.425       .  S
O230        C235   1.280       .  A
O231        H248   0.990       .  S
O231        H263   0.990       .  S
O232        H249   0.990       .  S
O233        H253   0.990       .  S
O233        H262   0.990       .  S
O234        C235   1.283       .  A
C235       C5093   1.484       .  S
O236        H255   0.990       .  S
O236        H259   0.990       .  S
O237        H251   0.990       .  S
O237        H258   0.990       .  S
O238        C242   1.284       .  A
O239        C242   1.288       .  A
O240        H250   0.990       .  S
O241        H254   0.990       .  S
C242       C4966   1.487       .  S
Zr265       O266   2.437       .  S
Zr265       O267   2.424       .  S
Zr265       O268   2.430       .  S
Zr265       O271   2.432       .  S
Zr265       O273   2.382       .  S
Zr265       O274   2.382       .  S
Zr265       O275   2.403       .  S
Zr265       O276   2.393       .  S
O266        H322   0.990       .  S
O266        H330   0.990       .  S
O267        C287   1.283       .  A
O268        C289   1.285       .  A
O269       Zr279   2.428       .  S
O269        C288   1.283       .  A
O270       Zr278   2.444       .  S
O270        C289   1.288       .  A
O271        C288   1.285       .  A
O272       Zr280   2.441       .  S
O272        C287   1.286       .  A
O273       Zr278   2.392       .  S
O273       Zr280   2.363       .  S
O274       Zr279   2.389       .  S
O274       Zr280   2.377       .  S
O274        H309   0.966       .  S
O275       Zr278   2.400       .  S
O275       Zr295   2.397       .  S
O275        H312   0.966       .  S
O276       Zr279   2.389       .  S
O276       Zr295   2.385       .  S
Zr277       O302   2.443       .  S
Zr277       O296   2.470       .  S
Zr277       O304   2.465       .  S
Zr277       O292   2.431       .  S
Zr277       O283   2.400       .  S
Zr277       O284   2.424       .  S
Zr277       O285   2.385       .  S
Zr277       O286   2.388       .  S
Zr278       O297   2.435       .  S
Zr278       O290   2.437       .  S
Zr278       O291   2.446       .  S
Zr278       O284   2.396       .  S
Zr278       O285   2.399       .  S
Zr279       O281   2.437       .  S
Zr279       O303   2.440       .  S
Zr279       O305   2.436       .  S
Zr279       O283   2.383       .  S
Zr279       O286   2.395       .  S
Zr280       O306   2.436       .  S
Zr280       O307   2.433       .  S
Zr280       O282   2.436       .  S
Zr280       O283   2.388       .  S
Zr280       O284   2.412       .  S
O281        H318   0.990       .  S
O282        H313   0.990       .  S
O282        H327   0.990       .  S
O284        H310   0.966       .  S
O285       Zr295   2.381       .  S
O286       Zr295   2.394       .  S
O286        H311   0.966       .  S
C287       C5009   1.487       .  S
C288       C5233   1.486       .  S
C289       C4869   1.491       .  S
O290        H326   0.990       .  S
O291        C293   1.287       .  A
O292        C293   1.283       .  A
C293       C5261   1.495       .  S
O294       Zr295   2.434       .  S
O294        H323   0.990       .  S
Zr295       O298   2.435       .  S
Zr295       O299   2.437       .  S
Zr295       O300   2.403       .  S
O296        C301   1.289       .  A
O297        H314   0.990       .  S
O297        H329   0.990       .  S
O298        H315   0.990       .  S
O299        H319   0.990       .  S
O299        H328   0.990       .  S
O300        C301   1.278       .  A
C301       C4994   1.483       .  S
O302        H321   0.990       .  S
O302        H325   0.990       .  S
O303        H317   0.990       .  S
O303        H324   0.990       .  S
O304        C308   1.289       .  A
O305        C308   1.285       .  A
O306        H316   0.990       .  S
O307        H320   0.990       .  S
C308       C4841   1.492       .  S
Zr331       O332   2.442       .  S
Zr331       O333   2.439       .  S
Zr331       O334   2.451       .  S
Zr331       O337   2.419       .  S
Zr331       O339   2.385       .  S
Zr331       O340   2.385       .  S
Zr331       O341   2.405       .  S
Zr331       O342   2.409       .  S
O332        H388   0.990       .  S
O332        H396   0.990       .  S
O333        C353   1.284       .  A
O334        C355   1.287       .  A
O335       Zr345   2.427       .  S
O335        C354   1.283       .  A
O336       Zr344   2.437       .  S
O336        C355   1.285       .  A
O337        C354   1.282       .  A
O338       Zr346   2.415       .  S
O338        C353   1.280       .  A
O339       Zr344   2.399       .  S
O339       Zr346   2.387       .  S
O340       Zr345   2.391       .  S
O340       Zr346   2.373       .  S
O340        H375   0.966       .  S
O341       Zr344   2.399       .  S
O341       Zr361   2.387       .  S
O341        H378   0.965       .  S
O342       Zr345   2.402       .  S
O342       Zr361   2.402       .  S
Zr343       O368   2.441       .  S
Zr343       O362   2.422       .  S
Zr343       O370   2.440       .  S
Zr343       O358   2.438       .  S
Zr343       O349   2.400       .  S
Zr343       O350   2.405       .  S
Zr343       O351   2.381       .  S
Zr343       O352   2.383       .  S
Zr344       O363   2.437       .  S
Zr344       O356   2.434       .  S
Zr344       O357   2.432       .  S
Zr344       O350   2.397       .  S
Zr344       O351   2.387       .  S
Zr345       O347   2.436       .  S
Zr345       O369   2.437       .  S
Zr345       O371   2.433       .  S
Zr345       O349   2.388       .  S
Zr345       O352   2.392       .  S
Zr346       O372   2.436       .  S
Zr346       O373   2.435       .  S
Zr346       O348   2.436       .  S
Zr346       O349   2.399       .  S
Zr346       O350   2.385       .  S
O347        H384   0.991       .  S
O348        H379   0.991       .  S
O348        H393   0.990       .  S
O350        H376   0.965       .  S
O351       Zr361   2.376       .  S
O352       Zr361   2.365       .  S
O352        H377   0.966       .  S
C353       C4910   1.484       .  S
C354       C5190   1.475       .  S
C355       C4854   1.496       .  S
O356        H392   0.990       .  S
O357        C359   1.286       .  A
O358        C359   1.286       .  A
C359       C5149   1.481       .  S
O360       Zr361   2.439       .  S
O360        H389   0.991       .  S
Zr361       O364   2.437       .  S
Zr361       O365   2.439       .  S
Zr361       O366   2.437       .  S
O362        C367   1.282       .  A
O363        H380   0.990       .  S
O363        H395   0.990       .  S
O364        H381   0.990       .  S
O365        H385   0.990   1_545  S
O365        H394   0.990       .  S
O366        C367   1.286       .  A
C367       C4938   1.497   1_545  S
O368        H387   0.990       .  S
O368        H391   0.990       .  S
O369        H383   0.990       .  S
O369        H390   0.990       .  S
O370        C374   1.287       .  A
O371        C374   1.285       .  A
O372        H382   0.990       .  S
O373        H386   0.990       .  S
C374       C4826   1.482       .  S
Zr397       O398   2.439       .  S
Zr397       O399   2.434       .  S
Zr397       O400   2.441       .  S
Zr397       O403   2.426       .  S
Zr397       O405   2.376       .  S
Zr397       O406   2.386       .  S
Zr397       O407   2.411       .  S
Zr397       O408   2.405       .  S
O398        H454   0.990       .  S
O398        H462   0.990       .  S
O399        C419   1.285       .  A
O400        C421   1.286       .  A
O401       Zr411   2.438       .  S
O401        C420   1.285       .  A
O402       Zr410   2.452       .  S
O402        C421   1.289       .  A
O403        C420   1.284       .  A
O404       Zr412   2.434       .  S
O404        C419   1.284       .  A
O405       Zr410   2.389       .  S
O405       Zr412   2.362       .  S
O406       Zr411   2.385       .  S
O406       Zr412   2.380       .  S
O406        H441   0.965       .  S
O407       Zr410   2.403       .  S
O407       Zr427   2.407       .  S
O407        H444   0.966       .  S
O408       Zr411   2.389       .  S
O408       Zr427   2.389       .  S
Zr409       O434   2.452       .  S
Zr409       O428   2.464       .  S
Zr409       O436   2.445       .  S
Zr409       O424   2.403       .  S
Zr409       O415   2.398       .  S
Zr409       O416   2.418       .  S
Zr409       O417   2.381       .  S
Zr409       O418   2.381       .  S
Zr410       O429   2.436       .  S
Zr410       O422   2.435       .  S
Zr410       O423   2.460       .  S
Zr410       O416   2.395       .  S
Zr410       O417   2.387       .  S
Zr411       O413   2.437       .  S
Zr411       O435   2.437       .  S
Zr411       O437   2.430       .  S
Zr411       O415   2.386       .  S
Zr411       O418   2.385       .  S
Zr412       O438   2.434       .  S
Zr412       O439   2.435       .  S
Zr412       O414   2.440       .  S
Zr412       O415   2.395       .  S
Zr412       O416   2.410       .  S
O413        H450   0.990       .  S
O414        H445   0.990       .  S
O414        H459   0.991       .  S
O416        H442   0.966       .  S
O417       Zr427   2.370       .  S
O418       Zr427   2.388       .  S
O418        H443   0.966       .  S
C419       C4729   1.484       .  S
C420       C4785   1.480       .  S
C421       C4658   1.489       .  S
O422        H458   0.990       .  S
O423        C425   1.291       .  A
O424        C425   1.277       .  A
C425       C4770   1.496       .  S
O426       Zr427   2.436       .  S
O426        H455   0.990       .  S
Zr427       O430   2.436       .  S
Zr427       O431   2.440       .  S
Zr427       O432   2.413       .  S
O428        C433   1.291       .  A
O429        H446   0.990       .  S
O429        H461   0.990       .  S
O430        H447   0.991       .  S
O431        H451   0.990       .  S
O431        H460   0.990       .  S
O432        C433   1.280       .  A
C433       C4701   1.483       .  S
O434        H453   0.990       .  S
O434        H457   0.990       .  S
O435        H449   0.990       .  S
O435        H456   0.990       .  S
O436        C440   1.286       .  A
O437        C440   1.285       .  A
O438        H448   0.990       .  S
O439        H452   0.990       .  S
C440       C4673   1.497       .  S
Zr463       O464   2.442       .  S
Zr463       O465   2.461       .  S
Zr463       O466   2.464       .  S
Zr463       O469   2.423       .  S
Zr463       O471   2.381       .  S
Zr463       O472   2.389       .  S
Zr463       O473   2.415       .  S
Zr463       O474   2.416       .  S
O464        H520   0.990       .  S
O464        H528   0.990       .  S
O465        C485   1.287       .  A
O466        C487   1.289       .  A
O467       Zr477   2.452       .  S
O467        C486   1.289       .  A
O468       Zr476   2.434       .  S
O468        C487   1.284       .  A
O469        C486   1.282       .  A
O470       Zr478   2.391       .  S
O470        C485   1.277       .  A
O471       Zr476   2.396       .  S
O471       Zr478   2.391       .  S
O472       Zr477   2.390       .  S
O472       Zr478   2.378       .  S
O472        H507   0.966       .  S
O473       Zr476   2.403       .  S
O473       Zr493   2.381       .  S
O473        H510   0.964       .  S
O474       Zr477   2.396       .  S
O474       Zr493   2.400       .  S
Zr475       O500   2.443       .  S
Zr475       O494   2.419       .  S
Zr475       O502   2.437       .  S
Zr475       O490   2.439       .  S
Zr475       O481   2.402       .  S
Zr475       O482   2.399       .  S
Zr475       O483   2.382       .  S
Zr475       O484   2.384       .  S
Zr476       O495   2.438       .  S
Zr476       O488   2.433       .  S
Zr476       O489   2.428       .  S
Zr476       O482   2.398       .  S
Zr476       O483   2.389       .  S
Zr477       O479   2.435       .  S
Zr477       O501   2.436       .  S
Zr477       O503   2.452       .  S
Zr477       O481   2.397       .  S
Zr477       O484   2.390       .  S
Zr478       O504   2.437       .  S
Zr478       O505   2.436       .  S
Zr478       O480   2.437       .  S
Zr478       O481   2.398       .  S
Zr478       O482   2.374       .  S
O479        H516   0.990       .  S
O480        H511   0.990       .  S
O480        H525   0.990       .  S
O482        H508   0.965       .  S
O483       Zr493   2.375       .  S
O484       Zr493   2.357       .  S
O484        H509   0.965       .  S
C485       C4602   1.485       .  S
C486       C4574   1.489       .  S
C487       C4686   1.494       .  S
O488        H524   0.990       .  S
O489        C491   1.286       .  A
O490        C491   1.286       .  A
C491       C4533   1.495       .  S
O492       Zr493   2.438       .  S
O492        H521   0.990       .  S
Zr493       O496   2.436       .  S
Zr493       O497   2.440       .  S
Zr493       O498   2.435       .  S
O494        C499   1.283       .  A
O495        H512   0.990       .  S
O495        H527   0.990       .  S
O496        H513   0.990       .  S
O497        H517   0.990   1_455  S
O497        H526   0.990       .  S
O498        C499   1.285       .  A
C499       C4617   1.487   1_455  S
O500        H519   0.990       .  S
O500        H523   0.990       .  S
O501        H515   0.990       .  S
O501        H522   0.990       .  S
O502        C506   1.287       .  A
O503        C506   1.288       .  A
O504        H514   0.990       .  S
O505        H518   0.990       .  S
C506       C5205   1.499       .  S
Zr529       O530   2.438       .  S
Zr529       O531   2.415       .  S
Zr529       O532   2.431       .  S
Zr529       O535   2.427       .  S
Zr529       O537   2.377       .  S
Zr529       O538   2.384       .  S
Zr529       O539   2.401       .  S
Zr529       O540   2.397       .  S
O530        H586   0.990       .  S
O530        H594   0.990       .  S
O531        C551   1.282       .  A
O532        C553   1.285       .  A
O533       Zr543   2.433       .  S
O533        C552   1.284       .  A
O534       Zr542   2.453       .  S
O534        C553   1.289       .  A
O535        C552   1.284       .  A
O536       Zr544   2.449       .  S
O536        C551   1.287       .  A
O537       Zr542   2.389       .  S
O537       Zr544   2.360       .  S
O538       Zr543   2.385       .  S
O538       Zr544   2.379       .  S
O538        H573   0.966       .  S
O539       Zr542   2.398       .  S
O539       Zr559   2.400       .  S
O539        H576   0.965       .  S
O540       Zr543   2.386       .  S
O540       Zr559   2.388       .  S
Zr541       O566   2.442       .  S
Zr541       O560   2.466       .  S
Zr541       O568   2.463       .  S
Zr541       O556   2.433       .  S
Zr541       O547   2.399       .  S
Zr541       O548   2.425       .  S
Zr541       O549   2.384       .  S
Zr541       O550   2.385       .  S
Zr542       O561   2.436       .  S
Zr542       O554   2.434       .  S
Zr542       O555   2.446       .  S
Zr542       O548   2.407       .  S
Zr542       O549   2.396       .  S
Zr543       O545   2.437       .  S
Zr543       O567   2.437       .  S
Zr543       O569   2.433       .  S
Zr543       O547   2.386       .  S
Zr543       O550   2.393       .  S
Zr544       O570   2.433       .  S
Zr544       O571   2.436       .  S
Zr544       O546   2.436       .  S
Zr544       O547   2.394       .  S
Zr544       O548   2.414       .  S
O545        H582   0.990       .  S
O546        H577   0.990       .  S
O546        H591   0.990       .  S
O548        H574   0.966       .  S
O549       Zr559   2.378       .  S
O550       Zr559   2.396       .  S
O550        H575   0.966       .  S
C551       C4449   1.483       .  S
C552       C4742   1.479       .  S
C553       C4421   1.490       .  S
O554        H590   0.989       .  S
O555        C557   1.287       .  A
O556        C557   1.284       .  A
C557       C4714   1.498       .  S
O558       Zr559   2.440       .  S
O558        H587   0.990       .  S
Zr559       O562   2.438       .  S
Zr559       O563   2.440       .  S
Zr559       O564   2.408       .  S
O560        C565   1.289       .  A
O561        H578   0.990       .  S
O561        H593   0.990       .  S
O562        H579   0.990       .  S
O563        H583   0.990       .  S
O563        H592   0.990       .  S
O564        C565   1.280       .  A
C565       C4477   1.489       .  S
O566        H585   0.991       .  S
O566        H589   0.990       .  S
O567        H581   0.990       .  S
O567        H588   0.990       .  S
O568        C572   1.290       .  A
O569        C572   1.285       .  A
O570        H580   0.989       .  S
O571        H584   0.990       .  S
C572       C4505   1.499       .  S
Zr595       O596   2.440       .  S
Zr595       O597   2.441       .  S
Zr595       O598   2.459       .  S
Zr595       O601   2.427       .  S
Zr595       O603   2.386       .  S
Zr595       O604   2.390       .  S
Zr595       O605   2.406       .  S
Zr595       O606   2.419       .  S
O596        H652   0.991       .  S
O596        H660   0.990       .  S
O597        C617   1.284       .  A
O598        C619   1.289       .  A
O599       Zr609   2.439       .  S
O599        C618   1.286       .  A
O600       Zr608   2.438       .  S
O600        C619   1.285       .  A
O601        C618   1.283       .  A
O602       Zr610   2.406       .  S
O602        C617   1.280       .  A
O603       Zr608   2.402       .  S
O603       Zr610   2.392       .  S
O604       Zr609   2.393       .  S
O604       Zr610   2.372       .  S
O604        H639   0.966       .  S
O605       Zr608   2.400       .  S
O605       Zr625   2.381       .  S
O605        H642   0.964       .  S
O606       Zr609   2.398       .  S
O606       Zr625   2.405       .  S
Zr607       O632   2.440       .  S
Zr607       O626   2.413       .  S
Zr607       O634   2.429       .  S
Zr607       O622   2.429       .  S
Zr607       O613   2.394       .  S
Zr607       O614   2.396       .  S
Zr607       O615   2.377       .  S
Zr607       O616   2.385       .  S
Zr608       O627   2.437       .  S
Zr608       O620   2.434       .  S
Zr608       O621   2.436       .  S
Zr608       O614   2.400       .  S
Zr608       O615   2.383       .  S
Zr609       O611   2.434       .  S
Zr609       O633   2.438       .  S
Zr609       O635   2.447       .  S
Zr609       O613   2.393       .  S
Zr609       O616   2.386       .  S
Zr610       O636   2.437       .  S
Zr610       O637   2.435       .  S
Zr610       O612   2.436       .  S
Zr610       O613   2.393       .  S
Zr610       O614   2.382       .  S
O611        H648   0.990       .  S
O612        H643   0.990       .  S
O612        H657   0.989       .  S
O614        H640   0.966       .  S
O615       Zr625   2.371       .  S
O616       Zr625   2.363       .  S
O616        H641   0.966       .  S
C617       C4378   1.478       .  S
C618       C4589   1.482       .  S
C619       C4518   1.495       .  S
O620        H656   0.990       .  S
O621        C623   1.287       .  A
O622        C623   1.284       .  A
C623       C4630   1.489       .  S
O624       Zr625   2.438       .  S
O624        H653   0.990       .  S
Zr625       O628   2.437       .  S
Zr625       O629   2.441       .  S
Zr625       O630   2.433       .  S
O626        C631   1.282       .  A
O627        H644   0.990       .  S
O627        H659   0.990       .  S
O628        H645   0.990       .  S
O629        H649   0.990       .  S
O629        H658   0.989       .  S
O630        C631   1.284       .  A
C631       C4406   1.478       .  S
O632        H651   0.991       .  S
O632        H655   0.990       .  S
O633        H647   0.990       .  S
O633        H654   0.991       .  S
O634        C638   1.285       .  A
O635        C638   1.288       .  A
O636        H646   0.989       .  S
O637        H650   0.990       .  S
C638       C4953   1.491       .  S
Zr661       O662   2.439       .  S
Zr661       O663   2.414       .  S
Zr661       O664   2.429       .  S
Zr661       O667   2.428       .  S
Zr661       O669   2.384       .  S
Zr661       O670   2.384       .  S
Zr661       O671   2.397       .  S
Zr661       O672   2.391       .  S
O662        H718   0.990       .  S
O662        H726   0.990       .  S
O663        C683   1.281       .  A
O664        C685   1.284       .  A
O665       Zr675   2.431       .  S
O665        C684   1.283       .  A
O666       Zr674   2.437       .  S
O666        C685   1.286       .  A
O667        C684   1.284       .  A
O668       Zr676   2.438       .  S
O668        C683   1.285       .  A
O669       Zr674   2.389       .  S
O669       Zr676   2.365       .  S
O670       Zr675   2.384       .  S
O670       Zr676   2.378       .  S
O670        H705   0.966       .  S
O671       Zr674   2.398       .  S
O671       Zr691   2.392       .  S
O671        H708   0.966       .  S
O672       Zr675   2.388       .  S
O672       Zr691   2.383       .  S
Zr673       O698   2.442       .  S
Zr673       O692   2.452       .  S
Zr673       O700   2.457       .  S
Zr673       O688   2.432       .  S
Zr673       O679   2.393       .  S
Zr673       O680   2.422       .  S
Zr673       O681   2.378       .  S
Zr673       O682   2.389       .  S
Zr674       O693   2.433       .  S
Zr674       O686   2.436       .  S
Zr674       O687   2.440       .  S
Zr674       O680   2.399       .  S
Zr674       O681   2.393       .  S
Zr675       O677   2.434       .  S
Zr675       O699   2.440       .  S
Zr675       O701   2.432       .  S
Zr675       O679   2.379       .  S
Zr675       O682   2.396       .  S
Zr676       O702   2.435       .  S
Zr676       O703   2.436       .  S
Zr676       O678   2.437       .  S
Zr676       O679   2.383       .  S
Zr676       O680   2.411       .  S
O677        H714   0.990       .  S
O678        H709   0.990       .  S
O678        H723   0.990       .  S
O680        H706   0.966       .  S
O681       Zr691   2.379       .  S
O682       Zr691   2.399       .  S
O682        H707   0.966       .  S
C683       C4798   1.476       .  S
C684       C4462   1.474       .  S
C685       C4309   1.481       .  S
O686        H722   0.990       .  S
O687        C689   1.285       .  A
O688        C689   1.283       .  A
C689       C4490   1.501   1_455  S
O690       Zr691   2.440       .  S
O690        H719   0.990       .  S
Zr691       O694   2.438       .  S
Zr691       O695   2.437       .  S
Zr691       O696   2.400       .  S
O692        C697   1.286       .  A
O693        H710   0.990       .  S
O693        H725   0.990       .  S
O694        H711   0.990       .  S
O695        H715   0.990       .  S
O695        H724   0.989       .  S
O696        C697   1.279       .  A
C697       C4757   1.480       .  S
O698        H717   0.990       .  S
O698        H721   0.990       .  S
O699        H713   0.990       .  S
O699        H720   0.990       .  S
O700        C704   1.288       .  A
O701        C704   1.285       .  A
O702        H712   0.990       .  S
O703        H716   0.990       .  S
C704       C4350   1.494       .  S
Zr727       O728   2.441       .  S
Zr727       O729   2.471       .  S
Zr727       O730   2.463       .  S
Zr727       O733   2.415       .  S
Zr727       O735   2.376       .  S
Zr727       O736   2.388       .  S
Zr727       O737   2.411       .  S
Zr727       O738   2.422       .  S
O728        H784   0.990       .  S
O728        H792   0.990       .  S
O729        C749   1.290       .  A
O730        C751   1.290       .  A
O731       Zr741   2.447       .  S
O731        C750   1.288       .  A
O732       Zr740   2.435       .  S
O732        C751   1.285       .  A
O733        C750   1.282       .  A
O734       Zr742   2.405       .  S
O734        C749   1.278       .  A
O735       Zr740   2.397       .  S
O735       Zr742   2.387       .  S
O736       Zr741   2.401       .  S
O736       Zr742   2.373       .  S
O736        H771   0.969       .  S
O737       Zr740   2.398       .  S
O737       Zr757   2.388       .  S
O737        H774   0.975       .  S
O738       Zr741   2.399       .  S
O738       Zr757   2.404       .  S
Zr739       O764   2.438       .  S
Zr739       O758   2.417       .  S
Zr739       O766   2.419       .  S
Zr739       O754   2.428       .  S
Zr739       O745   2.397       .  S
Zr739       O746   2.395       .  S
Zr739       O747   2.372       .  S
Zr739       O748   2.380       .  S
Zr740       O759   2.437       .  S
Zr740       O752   2.435       .  S
Zr740       O753   2.431       .  S
Zr740       O746   2.393       .  S
Zr740       O747   2.386       .  S
Zr741       O743   2.436       .  S
Zr741       O765   2.437       .  S
Zr741       O767   2.458       .  S
Zr741       O745   2.394       .  S
Zr741       O748   2.387       .  S
Zr742       O768   2.434       .  S
Zr742       O769   2.435       .  S
Zr742       O744   2.438       .  S
Zr742       O745   2.398       .  S
Zr742       O746   2.385       .  S
O743        H780   0.990       .  S
O744        H775   0.991       .  S
O744        H789   0.990       .  S
O746        H772   0.970       .  S
O747       Zr757   2.374       .  S
O748       Zr757   2.363       .  S
O748        H773   0.964       .  S
C749       C4561   1.489       .  S
C750       C4365   1.492       .  S
C751       C4337   1.495       .  S
O752        H788   0.990       .  S
O753        C755   1.286       .  A
O754        C755   1.285       .  A
C755       C4393   1.486       .  S
O756       Zr757   2.439       .  S
O756        H785   0.990       .  S
Zr757       O760   2.437       .  S
Zr757       O761   2.441       .  S
Zr757       O762   2.441       .  S
O758        C763   1.282       .  A
O759        H776   0.990       .  S
O759        H791   0.990       .  S
O760        H777   0.990       .  S
O761        H781   0.989       .  S
O761        H790   0.990       .  S
O762        C763   1.286       .  A
C763       C4546   1.481   1_565  S
O764        H783   0.990       .  S
O764        H787   0.989       .  S
O765        H779   0.990       .  S
O765        H786   0.990       .  S
O766        C770   1.282       .  A
O767        C770   1.290       .  A
O768        H778   0.990       .  S
O769        H782   0.990       .  S
C770       C4813   1.501       .  S
Zr793       O794   2.439       .  S
Zr793       O795   2.425       .  S
Zr793       O796   2.433       .  S
Zr793       O799   2.442       .  S
Zr793       O801   2.386       .  S
Zr793       O802   2.381       .  S
Zr793       O803   2.405       .  S
Zr793       O804   2.392       .  S
O794        H850   0.990       .  S
O794        H858   0.990       .  S
O795        C815   1.284       .  A
O796        C817   1.286       .  A
O797       Zr807   2.429       .  S
O797        C816   1.285       .  A
O798       Zr806   2.441       .  S
O798        C817   1.287       .  A
O799        C816   1.287       .  A
O800       Zr808   2.432       .  S
O800        C815   1.284       .  A
O801       Zr806   2.391       .  S
O801       Zr808   2.362       .  S
O802       Zr807   2.384       .  S
O802       Zr808   2.382       .  S
O802        H837   0.965       .  S
O803       Zr806   2.399       .  S
O803       Zr823   2.398       .  S
O803        H840   0.965       .  S
O804       Zr807   2.382       .  S
O804       Zr823   2.382       .  S
Zr805       O830   2.442       .  S
Zr805       O824   2.453       .  S
Zr805       O832   2.460       .  S
Zr805       O820   2.432       .  S
Zr805       O811   2.394       .  S
Zr805       O812   2.422       .  S
Zr805       O813   2.383       .  S
Zr805       O814   2.387       .  S
Zr806       O825   2.435       .  S
Zr806       O818   2.436       .  S
Zr806       O819   2.437       .  S
Zr806       O812   2.400       .  S
Zr806       O813   2.391       .  S
Zr807       O809   2.435       .  S
Zr807       O831   2.440       .  S
Zr807       O833   2.415       .  S
Zr807       O811   2.386       .  S
Zr807       O814   2.393       .  S
Zr808       O834   2.432       .  S
Zr808       O835   2.435       .  S
Zr808       O810   2.439       .  S
Zr808       O811   2.388       .  S
Zr808       O812   2.408       .  S
O809        H846   0.990       .  S
O810        H841   0.991       .  S
O810        H855   0.990       .  S
O812        H838   0.966       .  S
O813       Zr823   2.377       .  S
O814       Zr823   2.394       .  S
O814        H839   0.966       .  S
C815       C4266   1.484       .  S
C816       C4197   1.486       .  S
C817       C4882   1.489       .  S
O818        H854   0.990       .  S
O819        C821   1.286       .  A
O820        C821   1.282       .  A
C821       C4182   1.487       .  S
O822       Zr823   2.439       .  S
O822        H851   0.990       .  S
Zr823       O826   2.438       .  S
Zr823       O827   2.438       .  S
Zr823       O828   2.401       .  S
O824        C829   1.286       .  A
O825        H842   0.990       .  S
O825        H857   0.990       .  S
O826        H843   0.990       .  S
O827        H847   0.990       .  S
O827        H856   0.990       .  S
O828        C829   1.278       .  A
C829       C4225   1.477       .  S
O830        H849   0.990       .  S
O830        H853   0.990       .  S
O831        H845   0.990       .  S
O831        H852   0.990       .  S
O832        C836   1.289       .  A
O833        C836   1.282       .  A
O834        H844   0.990       .  S
O835        H848   0.990       .  S
C836       C4281   1.483       .  S
Zr859       O860   2.444       .  S
Zr859       O861   2.456       .  S
Zr859       O862   2.454       .  S
Zr859       O865   2.412       .  S
Zr859       O867   2.379       .  S
Zr859       O868   2.384       .  S
Zr859       O869   2.407       .  S
Zr859       O870   2.413       .  S
O860        H916   0.990       .  S
O860        H924   0.991       .  S
O861        C881   1.287       .  A
O862        C883   1.288       .  A
O863       Zr873   2.436       .  S
O863        C882   1.286       .  A
O864       Zr872   2.421       .  S
O864        C883   1.282       .  A
O865        C882   1.281       .  A
O866       Zr874   2.396       .  S
O866        C881   1.277       .  A
O867       Zr872   2.391       .  S
O867       Zr874   2.386       .  S
O868       Zr873   2.391       .  S
O868       Zr874   2.376       .  S
O868        H903   0.966       .  S
O869       Zr872   2.402       .  S
O869       Zr889   2.381       .  S
O869        H906   0.964       .  S
O870       Zr873   2.394       .  S
O870       Zr889   2.405       .  S
Zr871       O896   2.439       .  S
Zr871       O890   2.424       .  S
Zr871       O898   2.427       .  S
Zr871       O886   2.433       .  S
Zr871       O877   2.399       .  S
Zr871       O878   2.400       .  S
Zr871       O879   2.374       .  S
Zr871       O880   2.384       .  S
Zr872       O891   2.438       .  S
Zr872       O884   2.434       .  S
Zr872       O885   2.428       .  S
Zr872       O878   2.392       .  S
Zr872       O879   2.382       .  S
Zr873       O875   2.435       .  S
Zr873       O897   2.436       .  S
Zr873       O899   2.440       .  S
Zr873       O877   2.393       .  S
Zr873       O880   2.390       .  S
Zr874       O900   2.435       .  S
Zr874       O901   2.436       .  S
Zr874       O876   2.439       .  S
Zr874       O877   2.396       .  S
Zr874       O878   2.383       .  S
O875        H912   0.990       .  S
O876        H907   0.990       .  S
O876        H921   0.990       .  S
O878        H904   0.965       .  S
O879       Zr889   2.366       .  S
O880       Zr889   2.365       .  S
O880        H905   0.965       .  S
C881       C4085   1.478       .  S
C882       C4029   1.483       .  S
C883       C4294   1.492       .  S
O884        H920   0.990       .  S
O885        C887   1.286       .  A
O886        C887   1.286       .  A
C887       C4057   1.490       .  S
O888       Zr889   2.439       .  S
O888        H917   0.990       .  S
Zr889       O892   2.439       .  S
Zr889       O893   2.440       .  S
Zr889       O894   2.436       .  S
O890        C895   1.283       .  A
O891        H908   0.990       .  S
O891        H923   0.990       .  S
O892        H909   0.990       .  S
O893        H913   0.990       .  S
O893        H922   0.990       .  S
O894        C895   1.285       .  A
C895       C4126   1.480       .  S
O896        H915   0.990       .  S
O896        H919   0.990       .  S
O897        H911   0.990       .  S
O897        H918   0.990       .  S
O898        C902   1.285       .  A
O899        C902   1.286       .  A
O900        H910   0.990       .  S
O901        H914   0.990       .  S
C902       C4141   1.477       .  S
Zr925       O926   2.438       .  S
Zr925       O927   2.425       .  S
Zr925       O928   2.435       .  S
Zr925       O931   2.429       .  S
Zr925       O933   2.377       .  S
Zr925       O934   2.379       .  S
Zr925       O935   2.407   1_545  S
Zr925       O936   2.399       .  S
O926        H982   0.990       .  S
O926        H990   0.990       .  S
O927        C947   1.282       .  A
O928        C949   1.285       .  A
O929       Zr939   2.422       .  S
O929        C948   1.282       .  A
O930       Zr938   2.422       .  S
O930        C949   1.284   1_565  A
O931        C948   1.285       .  A
O932       Zr940   2.430       .  S
O932        C947   1.283       .  A
O933       Zr938   2.389   1_545  S
O933       Zr940   2.363       .  S
O934       Zr939   2.384       .  S
O934       Zr940   2.378       .  S
O934        H969   0.965       .  S
O935       Zr938   2.399       .  S
O935       Zr955   2.403       .  S
O935        H972   0.966       .  S
O936       Zr939   2.386       .  S
O936       Zr955   2.387   1_545  S
Zr937       O962   2.441       .  S
Zr937       O956   2.452       .  S
Zr937       O964   2.452       .  S
Zr937       O952   2.418       .  S
Zr937       O943   2.387   1_565  S
Zr937       O944   2.420       .  S
Zr937       O945   2.380       .  S
Zr937       O946   2.384       .  S
Zr938       O957   2.436       .  S
Zr938       O950   2.433       .  S
Zr938       O951   2.429       .  S
Zr938       O944   2.397       .  S
Zr938       O945   2.387       .  S
Zr939       O941   2.435       .  S
Zr939       O963   2.436       .  S
Zr939       O965   2.426       .  S
Zr939       O943   2.376       .  S
Zr939       O946   2.389   1_545  S
Zr940       O966   2.433       .  S
Zr940       O967   2.435       .  S
Zr940       O942   2.438       .  S
Zr940       O943   2.382       .  S
Zr940       O944   2.409   1_545  S
O941        H978   0.990       .  S
O942        H973   0.990       .  S
O942        H987   0.990       .  S
O944        H970   0.966       .  S
O945       Zr955   2.376       .  S
O946       Zr955   2.394       .  S
O946        H971   0.966       .  S
C947       C4014   1.474       .  S
C948       C4253   1.488       .  S
C949       C5386   1.495       .  S
O950        H986   0.990       .  S
O951        C953   1.283       .  A
O952        C953   1.281       .  A
C953       C4238   1.487       .  S
O954       Zr955   2.440       .  S
O954        H983   0.990       .  S
Zr955       O958   2.438       .  S
Zr955       O959   2.440       .  S
Zr955       O960   2.403       .  S
O956        C961   1.285       .  A
O957        H974   0.990       .  S
O957        H989   0.990       .  S
O958        H975   0.991       .  S
O959        H979   0.990       .  S
O959        H988   0.990       .  S
O960        C961   1.279       .  A
C961       C3986   1.483       .  S
O962        H981   0.990       .  S
O962        H985   0.990       .  S
O963        H977   0.990       .  S
O963        H984   0.990       .  S
O964        C968   1.287       .  A
O965        C968   1.283   1_545  A
O966        H976   0.990       .  S
O967        H980   0.991   1_545  S
C968       C3945   1.483       .  S
Zr991       O992   2.440       .  S
Zr991       O993   2.440       .  S
Zr991       O994   2.458       .  S
Zr991       O997   2.433       .  S
Zr991       O999   2.384       .  S
Zr991      O1000   2.385       .  S
Zr991      O1001   2.405   1_545  S
Zr991      O1002   2.409       .  S
O992       H1048   0.990       .  S
O992       H1056   0.990       .  S
O993       C1013   1.285       .  A
O994       C1015   1.289       .  A
O995      Zr1005   2.442       .  S
O995       C1014   1.287       .  A
O996      Zr1004   2.420       .  S
O996       C1015   1.282   1_565  A
O997       C1014   1.285       .  A
O998      Zr1006   2.407       .  S
O998       C1013   1.280       .  A
O999      Zr1004   2.394   1_545  S
O999      Zr1006   2.385       .  S
O1000     Zr1005   2.386       .  S
O1000     Zr1006   2.370       .  S
O1000      H1035   0.966       .  S
O1001     Zr1004   2.400       .  S
O1001     Zr1021   2.390       .  S
O1001      H1038   0.965       .  S
O1002     Zr1005   2.398       .  S
O1002     Zr1021   2.399   1_545  S
Zr1003     O1028   2.443       .  S
Zr1003     O1022   2.418       .  S
Zr1003     O1030   2.435       .  S
Zr1003     O1018   2.436       .  S
Zr1003     O1009   2.398       .  S
Zr1003     O1010   2.403       .  S
Zr1003     O1011   2.378       .  S
Zr1003     O1012   2.382       .  S
Zr1004     O1023   2.437       .  S
Zr1004     O1016   2.436       .  S
Zr1004     O1017   2.420       .  S
Zr1004     O1010   2.394       .  S
Zr1004     O1011   2.388       .  S
Zr1005     O1007   2.435       .  S
Zr1005     O1029   2.436       .  S
Zr1005     O1031   2.438   1_545  S
Zr1005     O1009   2.393   1_545  S
Zr1005     O1012   2.390   1_545  S
Zr1006     O1032   2.434       .  S
Zr1006     O1033   2.436   1_545  S
Zr1006     O1008   2.437       .  S
Zr1006     O1009   2.392   1_545  S
Zr1006     O1010   2.383   1_545  S
O1007      H1044   0.990       .  S
O1008      H1039   0.991       .  S
O1008      H1053   0.990       .  S
O1010      H1036   0.965       .  S
O1011     Zr1021   2.375       .  S
O1012     Zr1021   2.367       .  S
O1012      H1037   0.966       .  S
C1013      C3902   1.475       .  S
C1014      C4098   1.484       .  S
C1015      C3958   1.492       .  S
O1016      H1052   0.990       .  S
O1017      C1019   1.283       .  A
O1018      C1019   1.285       .  A
C1019      C4113   1.474       .  S
O1020     Zr1021   2.438       .  S
O1020      H1049   0.991       .  S
Zr1021     O1024   2.437       .  S
Zr1021     O1025   2.438       .  S
Zr1021     O1026   2.428       .  S
O1022      C1027   1.283       .  A
O1023      H1040   0.990       .  S
O1023      H1055   0.990       .  S
O1024      H1041   0.990       .  S
O1025      H1045   0.990       .  S
O1025      H1054   0.990       .  S
O1026      C1027   1.283       .  A
C1027      C3874   1.483       .  S
O1028      H1047   0.990       .  S
O1028      H1051   0.990       .  S
O1029      H1043   0.990       .  S
O1029      H1050   0.990       .  S
O1030      C1034   1.287       .  A
O1031      C1034   1.286       .  A
O1032      H1042   0.990       .  S
O1033      H1046   0.990       .  S
C1034      C3917   1.489       .  S
Zr1057     O1058   2.435       .  S
Zr1057     O1059   2.421       .  S
Zr1057     O1060   2.434       .  S
Zr1057     O1063   2.437       .  S
Zr1057     O1065   2.382       .  S
Zr1057     O1066   2.382       .  S
Zr1057     O1067   2.400   1_655  S
Zr1057     O1068   2.397       .  S
O1058      H1114   0.990       .  S
O1058      H1122   0.990       .  S
O1059      C1079   1.283       .  A
O1060      C1081   1.286       .  A
O1061     Zr1071   2.435       .  S
O1061      C1080   1.286       .  A
O1062     Zr1070   2.435       .  S
O1062      C1081   1.285   1_455  A
O1063      C1080   1.286       .  A
O1064     Zr1072   2.433       .  S
O1064      C1079   1.285       .  A
O1065     Zr1070   2.387   1_655  S
O1065     Zr1072   2.363       .  S
O1066     Zr1071   2.382       .  S
O1066     Zr1072   2.382       .  S
O1066      H1101   0.966       .  S
O1067     Zr1070   2.395       .  S
O1067     Zr1087   2.398       .  S
O1067      H1104   0.966       .  S
O1068     Zr1071   2.385       .  S
O1068     Zr1087   2.389   1_655  S
Zr1069     O1094   2.442       .  S
Zr1069     O1088   2.458       .  S
Zr1069     O1096   2.464       .  S
Zr1069     O1084   2.432       .  S
Zr1069     O1075   2.393   1_455  S
Zr1069     O1076   2.422       .  S
Zr1069     O1077   2.381       .  S
Zr1069     O1078   2.384       .  S
Zr1070     O1089   2.435       .  S
Zr1070     O1082   2.436       .  S
Zr1070     O1083   2.428       .  S
Zr1070     O1076   2.402       .  S
Zr1070     O1077   2.393       .  S
Zr1071     O1073   2.436       .  S
Zr1071     O1095   2.441       .  S
Zr1071     O1097   2.418       .  S
Zr1071     O1075   2.382       .  S
Zr1071     O1078   2.396   1_655  S
Zr1072     O1098   2.436       .  S
Zr1072     O1099   2.439       .  S
Zr1072     O1074   2.436       .  S
Zr1072     O1075   2.381       .  S
Zr1072     O1076   2.409   1_655  S
O1073      H1110   0.990       .  S
O1074      H1105   0.990       .  S
O1074      H1119   0.990       .  S
O1076      H1102   0.966       .  S
O1077     Zr1087   2.377       .  S
O1078     Zr1087   2.394       .  S
O1078      H1103   0.966       .  S
C1079      C4210   1.481       .  S
C1080      C4001   1.493       .  S
C1081      C5065   1.483       .  S
O1082      H1118   0.990       .  S
O1083      C1085   1.283       .  A
O1084      C1085   1.283       .  A
C1085      C3973   1.495       .  S
O1086     Zr1087   2.440       .  S
O1086      H1115   0.990       .  S
Zr1087     O1090   2.437       .  S
Zr1087     O1091   2.442       .  S
Zr1087     O1092   2.405       .  S
O1088      C1093   1.288       .  A
O1089      H1106   0.990       .  S
O1089      H1121   0.990       .  S
O1090      H1107   0.990       .  S
O1091      H1111   0.990       .  S
O1091      H1120   0.990       .  S
O1092      C1093   1.279       .  A
C1093      C4169   1.487       .  S
O1094      H1113   0.991       .  S
O1094      H1117   0.991       .  S
O1095      H1109   0.990       .  S
O1095      H1116   0.990       .  S
O1096      C1100   1.290       .  A
O1097      C1100   1.282   1_655  A
O1098      H1108   0.990       .  S
O1099      H1112   0.991       .  S
C1100      C3833   1.486       .  S
Zr1123     O1124   2.442       .  S
Zr1123     O1125   2.454       .  S
Zr1123     O1126   2.440       .  S
Zr1123     O1129   2.408       .  S
Zr1123     O1131   2.376       .  S
Zr1123     O1132   2.381       .  S
Zr1123     O1133   2.405   1_655  S
Zr1123     O1134   2.416       .  S
O1124      H1180   0.991       .  S
O1124      H1188   0.990       .  S
O1125      C1145   1.287       .  A
O1126      C1147   1.285       .  A
O1127     Zr1137   2.453       .  S
O1127      C1146   1.289       .  A
O1128     Zr1136   2.424       .  S
O1128      C1147   1.283   1_455  A
O1129      C1146   1.280       .  A
O1130     Zr1138   2.394       .  S
O1130      C1145   1.277       .  A
O1131     Zr1136   2.391   1_655  S
O1131     Zr1138   2.390       .  S
O1132     Zr1137   2.388       .  S
O1132     Zr1138   2.369       .  S
O1132      H1167   0.966       .  S
O1133     Zr1136   2.393       .  S
O1133     Zr1153   2.390       .  S
O1133      H1170   0.965       .  S
O1134     Zr1137   2.391       .  S
O1134     Zr1153   2.406   1_655  S
Zr1135     O1160   2.442       .  S
Zr1135     O1154   2.409       .  S
Zr1135     O1162   2.436       .  S
Zr1135     O1150   2.454       .  S
Zr1135     O1141   2.399   1_455  S
Zr1135     O1142   2.393       .  S
Zr1135     O1143   2.375       .  S
Zr1135     O1144   2.391       .  S
Zr1136     O1155   2.435       .  S
Zr1136     O1148   2.435       .  S
Zr1136     O1149   2.409       .  S
Zr1136     O1142   2.396       .  S
Zr1136     O1143   2.384       .  S
Zr1137     O1139   2.435       .  S
Zr1137     O1161   2.436       .  S
Zr1137     O1163   2.431       .  S
Zr1137     O1141   2.402       .  S
Zr1137     O1144   2.394   1_655  S
Zr1138     O1164   2.435       .  S
Zr1138     O1165   2.435       .  S
Zr1138     O1140   2.436       .  S
Zr1138     O1141   2.385       .  S
Zr1138     O1142   2.379   1_655  S
O1139      H1176   0.990       .  S
O1140      H1171   0.990       .  S
O1140      H1185   0.990       .  S
O1142      H1168   0.966       .  S
O1143     Zr1153   2.372       .  S
O1144     Zr1153   2.363       .  S
O1144      H1169   0.966       .  S
C1145      C4042   1.476       .  S
C1146      C3889   1.483       .  S
C1147      C3846   1.486       .  S
O1148      H1184   0.990       .  S
O1149      C1151   1.282       .  A
O1150      C1151   1.290       .  A
C1151      C3861   1.484       .  S
O1152     Zr1153   2.439       .  S
O1152      H1181   0.990       .  S
Zr1153     O1156   2.440       .  S
Zr1153     O1157   2.439       .  S
Zr1153     O1158   2.441       .  S
O1154      C1159   1.281       .  A
O1155      H1172   0.990       .  S
O1155      H1187   0.990       .  S
O1156      H1173   0.990       .  S
O1157      H1177   0.990       .  S
O1157      H1186   0.990       .  S
O1158      C1159   1.286       .  A
C1159      C4070   1.485       .  S
O1160      H1179   0.989       .  S
O1160      H1183   0.989       .  S
O1161      H1175   0.990       .  S
O1161      H1182   0.990       .  S
O1162      C1166   1.287       .  A
O1163      C1166   1.285   1_655  A
O1164      H1174   0.990       .  S
O1165      H1178   0.990   1_655  S
C1166      C3805   1.485       .  S
Zr1189     O1190   2.438       .  S
Zr1189     O1191   2.420       .  S
Zr1189     O1192   2.427       .  S
Zr1189     O1195   2.430       .  S
Zr1189     O1197   2.382       .  S
Zr1189     O1198   2.381       .  S
Zr1189     O1199   2.403       .  S
Zr1189     O1200   2.394       .  S
O1190      H1246   0.990       .  S
O1190      H1254   0.990       .  S
O1191      C1211   1.283       .  A
O1192      C1213   1.284       .  A
O1193     Zr1203   2.436       .  S
O1193      C1212   1.286       .  A
O1194     Zr1202   2.440       .  S
O1194      C1213   1.286       .  A
O1195      C1212   1.284       .  A
O1196     Zr1204   2.432       .  S
O1196      C1211   1.284       .  A
O1197     Zr1202   2.391       .  S
O1197     Zr1204   2.368       .  S
O1198     Zr1203   2.391       .  S
O1198     Zr1204   2.382       .  S
O1198      H1233   0.966       .  S
O1199     Zr1202   2.393       .  S
O1199     Zr1219   2.396       .  S
O1199      H1236   0.966       .  S
O1200     Zr1203   2.384       .  S
O1200     Zr1219   2.387       .  S
Zr1201     O1226   2.442       .  S
Zr1201     O1220   2.454       .  S
Zr1201     O1228   2.461       .  S
Zr1201     O1216   2.433       .  S
Zr1201     O1207   2.390       .  S
Zr1201     O1208   2.422       .  S
Zr1201     O1209   2.384       .  S
Zr1201     O1210   2.387       .  S
Zr1202     O1221   2.436       .  S
Zr1202     O1214   2.434       .  S
Zr1202     O1215   2.435       .  S
Zr1202     O1208   2.402       .  S
Zr1202     O1209   2.391       .  S
Zr1203     O1205   2.436       .  S
Zr1203     O1227   2.439       .  S
Zr1203     O1229   2.432       .  S
Zr1203     O1207   2.386       .  S
Zr1203     O1210   2.397       .  S
Zr1204     O1230   2.435       .  S
Zr1204     O1231   2.436       .  S
Zr1204     O1206   2.436       .  S
Zr1204     O1207   2.383       .  S
Zr1204     O1208   2.404       .  S
O1205      H1242   0.990       .  S
O1206      H1237   0.990       .  S
O1206      H1251   0.990       .  S
O1208      H1234   0.966       .  S
O1209     Zr1219   2.377       .  S
O1210     Zr1219   2.394       .  S
O1210      H1235   0.966       .  S
C1211      C3693   1.485       .  S
C1212      C3637   1.483       .  S
C1213      C3790   1.490       .  S
O1214      H1250   0.990       .  S
O1215      C1217   1.286       .  A
O1216      C1217   1.283       .  A
C1217      C3678   1.489       .  S
O1218     Zr1219   2.440       .  S
O1218      H1247   0.990       .  S
Zr1219     O1222   2.438       .  S
Zr1219     O1223   2.439       .  S
Zr1219     O1224   2.405       .  S
O1220      C1225   1.286       .  A
O1221      H1238   0.990       .  S
O1221      H1253   0.990       .  S
O1222      H1239   0.990       .  S
O1223      H1243   0.990       .  S
O1223      H1252   0.990       .  S
O1224      C1225   1.279       .  A
C1225      C3721   1.487       .  S
O1226      H1245   0.990       .  S
O1226      H1249   0.991       .  S
O1227      H1241   0.990       .  S
O1227      H1248   0.990       .  S
O1228      C1232   1.289       .  A
O1229      C1232   1.284       .  A
O1230      H1240   0.990       .  S
O1231      H1244   0.990       .  S
C1232      C3762   1.483       .  S
Zr1255     O1256   2.442       .  S
Zr1255     O1257   2.469       .  S
Zr1255     O1258   2.465       .  S
Zr1255     O1261   2.417       .  S
Zr1255     O1263   2.380       .  S
Zr1255     O1264   2.387       .  S
Zr1255     O1265   2.409       .  S
Zr1255     O1266   2.418       .  S
O1256      H1312   0.990       .  S
O1256      H1320   0.990       .  S
O1257      C1277   1.289       .  A
O1258      C1279   1.289       .  A
O1259     Zr1269   2.447       .  S
O1259      C1278   1.287       .  A
O1260     Zr1268   2.425       .  S
O1260      C1279   1.284       .  A
O1261      C1278   1.281       .  A
O1262     Zr1270   2.398       .  S
O1262      C1277   1.278       .  A
O1263     Zr1268   2.400       .  S
O1263     Zr1270   2.393       .  S
O1264     Zr1269   2.391       .  S
O1264     Zr1270   2.374       .  S
O1264      H1299   0.966       .  S
O1265     Zr1268   2.405       .  S
O1265     Zr1285   2.386       .  S
O1265      H1302   0.964       .  S
O1266     Zr1269   2.397       .  S
O1266     Zr1285   2.401       .  S
Zr1267     O1292   2.438       .  S
Zr1267     O1286   2.414       .  S
Zr1267     O1294   2.423       .  S
Zr1267     O1282   2.438       .  S
Zr1267     O1273   2.400       .  S
Zr1267     O1274   2.392       .  S
Zr1267     O1275   2.376       .  S
Zr1267     O1276   2.386       .  S
Zr1268     O1287   2.437       .  S
Zr1268     O1280   2.433       .  S
Zr1268     O1281   2.437       .  S
Zr1268     O1274   2.393       .  S
Zr1268     O1275   2.385       .  S
Zr1269     O1271   2.436       .  S
Zr1269     O1293   2.436       .  S
Zr1269     O1295   2.448       .  S
Zr1269     O1273   2.399       .  S
Zr1269     O1276   2.392       .  S
Zr1270     O1296   2.435       .  S
Zr1270     O1297   2.437       .  S
Zr1270     O1272   2.437       .  S
Zr1270     O1273   2.393       .  S
Zr1270     O1274   2.376       .  S
O1271      H1308   0.990       .  S
O1272      H1303   0.990       .  S
O1272      H1317   0.990       .  S
O1274      H1300   0.965       .  S
O1275     Zr1285   2.377       .  S
O1276     Zr1285   2.358       .  S
O1276      H1301   0.965       .  S
C1277      C3594   1.487       .  S
C1278      C3538   1.481   1_455  S
C1279      C3749   1.488       .  S
O1280      H1316   0.990       .  S
O1281      C1283   1.287       .  A
O1282      C1283   1.286       .  A
C1283      C3566   1.498       .  S
O1284     Zr1285   2.440       .  S
O1284      H1313   0.991       .  S
Zr1285     O1288   2.438       .  S
Zr1285     O1289   2.442       .  S
Zr1285     O1290   2.435       .  S
O1286      C1291   1.281       .  A
O1287      H1304   0.990       .  S
O1287      H1319   0.990       .  S
O1288      H1305   0.990       .  S
O1289      H1309   0.990       .  S
O1289      H1318   0.990       .  S
O1290      C1291   1.285       .  A
C1291      C3609   1.480       .  S
O1292      H1311   0.990       .  S
O1292      H1315   0.990       .  S
O1293      H1307   0.990       .  S
O1293      H1314   0.990       .  S
O1294      C1298   1.283       .  A
O1295      C1298   1.288       .  A
O1296      H1306   0.990       .  S
O1297      H1310   0.990       .  S
C1298      C3818   1.485       .  S
Zr1321     O1322   2.440       .  S
Zr1321     O1323   2.434       .  S
Zr1321     O1324   2.438       .  S
Zr1321     O1327   2.428       .  S
Zr1321     O1329   2.378       .  S
Zr1321     O1330   2.386       .  S
Zr1321     O1331   2.405       .  S
Zr1321     O1332   2.399       .  S
O1322      H1378   0.990       .  S
O1322      H1386   0.990       .  S
O1323      C1343   1.285       .  A
O1324      C1345   1.286       .  A
O1325     Zr1335   2.420       .  S
O1325      C1344   1.282       .  A
O1326     Zr1334   2.439       .  S
O1326      C1345   1.287       .  A
O1327      C1344   1.285       .  A
O1328     Zr1336   2.443       .  S
O1328      C1343   1.287       .  A
O1329     Zr1334   2.391       .  S
O1329     Zr1336   2.370       .  S
O1330     Zr1335   2.386       .  S
O1330     Zr1336   2.374       .  S
O1330      H1365   0.966       .  S
O1331     Zr1334   2.397       .  S
O1331     Zr1351   2.405       .  S
O1331      H1368   0.966       .  S
O1332     Zr1335   2.386       .  S
O1332     Zr1351   2.386       .  S
Zr1333     O1358   2.443       .  S
Zr1333     O1352   2.455       .  S
Zr1333     O1360   2.459       .  S
Zr1333     O1348   2.412       .  S
Zr1333     O1339   2.396       .  S
Zr1333     O1340   2.420       .  S
Zr1333     O1341   2.382       .  S
Zr1333     O1342   2.379       .  S
Zr1334     O1353   2.435       .  S
Zr1334     O1346   2.435       .  S
Zr1334     O1347   2.442       .  S
Zr1334     O1340   2.398       .  S
Zr1334     O1341   2.395       .  S
Zr1335     O1337   2.434       .  S
Zr1335     O1359   2.439       .  S
Zr1335     O1361   2.417       .  S
Zr1335     O1339   2.387       .  S
Zr1335     O1342   2.393       .  S
Zr1336     O1362   2.435       .  S
Zr1336     O1363   2.436       .  S
Zr1336     O1338   2.438       .  S
Zr1336     O1339   2.391       .  S
Zr1336     O1340   2.405       .  S
O1337      H1374   0.990       .  S
O1338      H1369   0.990   1_455  S
O1338      H1383   0.990       .  S
O1340      H1366   0.965       .  S
O1341     Zr1351   2.381       .  S
O1342     Zr1351   2.393       .  S
O1342      H1367   0.966       .  S
C1343      C3454   1.492   1_455  S
C1344      C3706   1.473       .  S
C1345      C3510   1.488       .  S
O1346      H1382   0.990       .  S
O1347      C1349   1.287       .  A
O1348      C1349   1.279       .  A
C1349      C3734   1.482       .  S
O1350     Zr1351   2.440       .  S
O1350      H1379   0.990       .  S
Zr1351     O1354   2.438       .  S
Zr1351     O1355   2.441       .  S
Zr1351     O1356   2.411       .  S
O1352      C1357   1.286       .  A
O1353      H1370   0.990       .  S
O1353      H1385   0.990       .  S
O1354      H1371   0.990       .  S
O1355      H1375   0.990       .  S
O1355      H1384   0.989       .  S
O1356      C1357   1.279       .  A
C1357      C3413   1.481       .  S
O1358      H1377   0.990       .  S
O1358      H1381   0.990       .  S
O1359      H1373   0.990       .  S
O1359      H1380   0.990       .  S
O1360      C1364   1.286       .  A
O1361      C1364   1.282       .  A
O1362      H1372   0.990       .  S
O1363      H1376   0.990       .  S
C1364      C3469   1.487       .  S
Zr1387     O1388   2.438       .  S
Zr1387     O1389   2.448       .  S
Zr1387     O1390   2.444       .  S
Zr1387     O1393   2.405       .  S
Zr1387     O1395   2.376       .  S
Zr1387     O1396   2.384       .  S
Zr1387     O1397   2.402       .  S
Zr1387     O1398   2.413       .  S
O1388      H1444   0.990       .  S
O1388      H1452   0.990       .  S
O1389      C1409   1.287       .  A
O1390      C1411   1.286       .  A
O1391     Zr1401   2.459       .  S
O1391      C1410   1.291       .  A
O1392     Zr1400   2.438       .  S
O1392      C1411   1.286       .  A
O1393      C1410   1.281       .  A
O1394     Zr1402   2.416       .  S
O1394      C1409   1.281       .  A
O1395     Zr1400   2.387       .  S
O1395     Zr1402   2.383       .  S
O1396     Zr1401   2.387       .  S
O1396     Zr1402   2.370       .  S
O1396      H1431   0.966       .  S
O1397     Zr1400   2.393       .  S
O1397     Zr1417   2.392       .  S
O1397      H1434   0.965       .  S
O1398     Zr1401   2.395       .  S
O1398     Zr1417   2.405       .  S
Zr1399     O1424   2.440       .  S
Zr1399     O1418   2.425       .  S
Zr1399     O1426   2.435       .  S
Zr1399     O1414   2.434       .  S
Zr1399     O1405   2.398       .  S
Zr1399     O1406   2.401       .  S
Zr1399     O1407   2.376       .  S
Zr1399     O1408   2.384       .  S
Zr1400     O1419   2.437       .  S
Zr1400     O1412   2.435       .  S
Zr1400     O1413   2.425       .  S
Zr1400     O1406   2.399       .  S
Zr1400     O1407   2.386       .  S
Zr1401     O1403   2.435       .  S
Zr1401     O1425   2.435       .  S
Zr1401     O1427   2.456       .  S
Zr1401     O1405   2.397       .  S
Zr1401     O1408   2.398       .  S
Zr1402     O1428   2.436       .  S
Zr1402     O1429   2.435       .  S
Zr1402     O1404   2.435       .  S
Zr1402     O1405   2.399       .  S
Zr1402     O1406   2.384       .  S
O1403      H1440   0.990       .  S
O1404      H1435   0.990       .  S
O1404      H1449   0.990       .  S
O1406      H1432   0.966       .  S
O1407     Zr1417   2.366       .  S
O1408     Zr1417   2.368       .  S
O1408      H1433   0.966       .  S
C1409      C3357   1.482       .  S
C1410      C3581   1.486       .  S
C1411      C3482   1.500       .  S
O1412      H1448   0.990       .  S
O1413      C1415   1.284       .  A
O1414      C1415   1.287       .  A
C1415      C3622   1.488       .  S
O1416     Zr1417   2.438       .  S
O1416      H1445   0.990       .  S
Zr1417     O1420   2.438       .  S
Zr1417     O1421   2.439       .  S
Zr1417     O1422   2.443       .  S
O1418      C1423   1.284       .  A
O1419      H1436   0.990       .  S
O1419      H1451   0.990       .  S
O1420      H1437   0.990       .  S
O1421      H1441   0.990       .  S
O1421      H1450   0.990       .  S
O1422      C1423   1.286       .  A
C1423      C3385   1.488       .  S
O1424      H1443   0.991       .  S
O1424      H1447   0.990       .  S
O1425      H1439   0.990       .  S
O1425      H1446   0.990       .  S
O1426      C1430   1.286       .  A
O1427      C1430   1.290       .  A
O1428      H1438   0.990       .  S
O1429      H1442   0.990       .  S
C1430      C3930   1.505       .  S
Zr1453     O1454   2.438       .  S
Zr1453     O1455   2.444       .  S
Zr1453     O1456   2.427       .  S
Zr1453     O1459   2.436       .  S
Zr1453     O1461   2.382       .  S
Zr1453     O1462   2.377       .  S
Zr1453     O1463   2.406       .  S
Zr1453     O1464   2.396       .  S
O1454      H1510   0.990       .  S
O1454      H1518   0.990       .  S
O1455      C1475   1.287       .  A
O1456      C1477   1.284       .  A
O1457     Zr1467   2.433       .  S
O1457      C1476   1.285       .  A
O1458     Zr1466   2.447       .  S
O1458      C1477   1.288       .  A
O1459      C1476   1.285       .  A
O1460     Zr1468   2.425       .  S
O1460      C1475   1.283       .  A
O1461     Zr1466   2.390       .  S
O1461     Zr1468   2.363       .  S
O1462     Zr1467   2.381       .  S
O1462     Zr1468   2.382       .  S
O1462      H1497   0.964       .  S
O1463     Zr1466   2.401       .  S
O1463     Zr1483   2.397       .  S
O1463      H1500   0.966       .  S
O1464     Zr1467   2.387       .  S
O1464     Zr1483   2.390       .  S
Zr1465     O1490   2.442       .  S
Zr1465     O1484   2.446       .  S
Zr1465     O1492   2.448       .  S
Zr1465     O1480   2.437       .  S
Zr1465     O1471   2.392       .  S
Zr1465     O1472   2.418       .  S
Zr1465     O1473   2.379       .  S
Zr1465     O1474   2.387       .  S
Zr1466     O1485   2.435       .  S
Zr1466     O1478   2.436       .  S
Zr1466     O1479   2.441       .  S
Zr1466     O1472   2.400       .  S
Zr1466     O1473   2.395       .  S
Zr1467     O1469   2.435       .  S
Zr1467     O1491   2.440       .  S
Zr1467     O1493   2.422       .  S
Zr1467     O1471   2.383       .  S
Zr1467     O1474   2.395       .  S
Zr1468     O1494   2.433       .  S
Zr1468     O1495   2.434       .  S
Zr1468     O1470   2.437       .  S
Zr1468     O1471   2.385       .  S
Zr1468     O1472   2.404       .  S
O1469      H1506   0.990       .  S
O1470      H1501   0.990       .  S
O1470      H1515   0.990       .  S
O1472      H1498   0.966       .  S
O1473     Zr1483   2.373       .  S
O1474     Zr1483   2.393       .  S
O1474      H1499   0.966       .  S
C1475      C3650   1.491       .  S
C1476      C3441   1.478       .  S
C1477      C3301   1.486       .  S
O1478      H1514   0.990       .  S
O1479      C1481   1.287       .  A
O1480      C1481   1.283       .  A
C1481      C3426   1.499       .  S
O1482     Zr1483   2.439       .  S
O1482      H1511   0.990       .  S
Zr1483     O1486   2.437       .  S
Zr1483     O1487   2.438       .  S
Zr1483     O1488   2.409       .  S
O1484      C1489   1.285       .  A
O1485      H1502   0.990       .  S
O1485      H1517   0.990       .  S
O1486      H1503   0.990       .  S
O1487      H1507   0.990       .  S
O1487      H1516   0.990       .  S
O1488      C1489   1.279       .  A
C1489      C3665   1.483       .  S
O1490      H1509   0.990       .  S
O1490      H1513   0.990       .  S
O1491      H1505   0.990       .  S
O1491      H1512   0.990       .  S
O1492      C1496   1.287       .  A
O1493      C1496   1.283       .  A
O1494      H1504   0.990       .  S
O1495      H1508   0.990       .  S
C1496      C3329   1.480       .  S
Zr1519     O1520   2.439       .  S
Zr1519     O1521   2.456       .  S
Zr1519     O1522   2.451       .  S
Zr1519     O1525   2.413       .  S
Zr1519     O1527   2.376       .  S
Zr1519     O1528   2.385       .  S
Zr1519     O1529   2.411       .  S
Zr1519     O1530   2.415       .  S
O1520      H1576   0.990       .  S
O1520      H1584   0.990       .  S
O1521      C1541   1.287       .  A
O1522      C1543   1.286       .  A
O1523     Zr1533   2.445       .  S
O1523      C1542   1.287       .  A
O1524     Zr1532   2.428       .  S
O1524      C1543   1.284       .  A
O1525      C1542   1.280       .  A
O1526     Zr1534   2.405       .  S
O1526      C1541   1.279       .  A
O1527     Zr1532   2.392       .  S
O1527     Zr1534   2.386       .  S
O1528     Zr1533   2.393       .  S
O1528     Zr1534   2.371       .  S
O1528      H1563   0.966       .  S
O1529     Zr1532   2.400       .  S
O1529     Zr1549   2.389       .  S
O1529      H1566   0.965       .  S
O1530     Zr1533   2.392       .  S
O1530     Zr1549   2.405       .  S
Zr1531     O1556   2.444       .  S
Zr1531     O1550   2.423       .  S
Zr1531     O1558   2.437       .  S
Zr1531     O1546   2.431       .  S
Zr1531     O1537   2.404       .  S
Zr1531     O1538   2.402       .  S
Zr1531     O1539   2.378       .  S
Zr1531     O1540   2.380       .  S
Zr1532     O1551   2.438       .  S
Zr1532     O1544   2.435       .  S
Zr1532     O1545   2.423       .  S
Zr1532     O1538   2.397       .  S
Zr1532     O1539   2.388       .  S
Zr1533     O1535   2.434       .  S
Zr1533     O1557   2.437       .  S
Zr1533     O1559   2.444       .  S
Zr1533     O1537   2.399       .  S
Zr1533     O1540   2.387       .  S
Zr1534     O1560   2.436       .  S
Zr1534     O1561   2.434       .  S
Zr1534     O1536   2.437       .  S
Zr1534     O1537   2.397       .  S
Zr1534     O1538   2.384       .  S
O1535      H1572   0.990       .  S
O1536      H1567   0.990       .  S
O1536      H1581   0.990       .  S
O1538      H1564   0.966       .  S
O1539     Zr1549   2.372       .  S
O1540     Zr1549   2.367       .  S
O1540      H1565   0.965       .  S
C1541      C3525   1.483       .  S
C1542      C3370   1.482       .  S
C1543      C3342   1.498       .  S
O1544      H1580   0.990       .  S
O1545      C1547   1.284       .  A
O1546      C1547   1.285       .  A
C1547      C3398   1.482       .  S
O1548     Zr1549   2.439       .  S
O1548      H1577   0.990       .  S
Zr1549     O1552   2.437       .  S
Zr1549     O1553   2.442       .  S
Zr1549     O1554   2.434       .  S
O1550      C1555   1.283       .  A
O1551      H1568   0.990       .  S
O1551      H1583   0.990       .  S
O1552      H1569   0.990       .  S
O1553      H1573   0.990       .  S
O1553      H1582   0.989       .  S
O1554      C1555   1.284       .  A
C1555      C3553   1.484       .  S
O1556      H1575   0.990       .  S
O1556      H1579   0.990       .  S
O1557      H1571   0.990       .  S
O1557      H1578   0.990       .  S
O1558      C1562   1.287       .  A
O1559      C1562   1.287       .  A
O1560      H1570   0.990       .  S
O1561      H1574   0.990       .  S
C1562      C4154   1.502       .  S
Zr1585     O1586   2.436       .  S
Zr1585     O1587   2.416       .  S
Zr1585     O1588   2.437       .  S
Zr1585     O1591   2.417       .  S
Zr1585     O1593   2.373       .  S
Zr1585     O1594   2.384       .  S
Zr1585     O1595   2.399       .  S
Zr1585     O1596   2.400       .  S
O1586      H1642   0.990       .  S
O1586      H1650   0.990       .  S
O1587      C1607   1.282       .  A
O1588      C1609   1.286       .  A
O1589     Zr1599   2.439       .  S
O1589      C1608   1.285       .  A
O1590     Zr1598   2.433       .  S
O1590      C1609   1.285       .  A
O1591      C1608   1.282       .  A
O1592     Zr1600   2.433       .  S
O1592      C1607   1.285       .  A
O1593     Zr1598   2.383       .  S
O1593     Zr1600   2.365       .  S
O1594     Zr1599   2.391       .  S
O1594     Zr1600   2.382       .  S
O1594      H1629   0.966       .  S
O1595     Zr1598   2.396       .  S
O1595     Zr1615   2.404       .  S
O1595      H1632   0.966       .  S
O1596     Zr1599   2.387       .  S
O1596     Zr1615   2.391       .  S
Zr1597     O1622   2.439       .  S
Zr1597     O1616   2.448       .  S
Zr1597     O1624   2.463       .  S
Zr1597     O1612   2.441       .  S
Zr1597     O1603   2.387       .  S
Zr1597     O1604   2.418       .  S
Zr1597     O1605   2.378       .  S
Zr1597     O1606   2.388       .  S
Zr1598     O1617   2.437       .  S
Zr1598     O1610   2.435       .  S
Zr1598     O1611   2.420       .  S
Zr1598     O1604   2.404       .  S
Zr1598     O1605   2.393       .  S
Zr1599     O1601   2.435       .  S
Zr1599     O1623   2.440       .  S
Zr1599     O1625   2.438       .  S
Zr1599     O1603   2.382       .  S
Zr1599     O1606   2.397       .  S
Zr1600     O1626   2.435       .  S
Zr1600     O1627   2.435       .  S
Zr1600     O1602   2.438       .  S
Zr1600     O1603   2.378       .  S
Zr1600     O1604   2.407       .  S
O1601      H1638   0.990       .  S
O1602      H1633   0.990       .  S
O1602      H1647   0.990       .  S
O1604      H1630   0.966       .  S
O1605     Zr1615   2.375       .  S
O1606     Zr1615   2.394       .  S
O1606      H1631   0.966       .  S
C1607      C3161   1.478       .  S
C1608      C3217   1.481       .  S
C1609      C3497   1.494       .  S
O1610      H1646   0.990       .  S
O1611      C1613   1.283       .  A
O1612      C1613   1.285       .  A
C1613      C3258   1.490       .  S
O1614     Zr1615   2.440       .  S
O1614      H1643   0.990       .  S
Zr1615     O1618   2.439       .  S
Zr1615     O1619   2.440       .  S
Zr1615     O1620   2.411       .  S
O1616      C1621   1.285       .  A
O1617      H1634   0.990       .  S
O1617      H1649   0.990       .  S
O1618      H1635   0.990       .  S
O1619      H1639   0.990       .  S
O1619      H1648   0.990       .  S
O1620      C1621   1.280       .  A
C1621      C3202   1.476       .  S
O1622      H1641   0.990       .  S
O1622      H1645   0.990       .  S
O1623      H1637   0.990       .  S
O1623      H1644   0.990       .  S
O1624      C1628   1.290       .  A
O1625      C1628   1.286       .  A
O1626      H1636   0.991       .  S
O1627      H1640   0.991       .  S
C1628      C3273   1.492       .  S
Zr1651     O1652   2.442       .  S
Zr1651     O1653   2.455       .  S
Zr1651     O1654   2.453       .  S
Zr1651     O1657   2.429       .  S
Zr1651     O1659   2.381       .  S
Zr1651     O1660   2.385       .  S
Zr1651     O1661   2.415       .  S
Zr1651     O1662   2.416       .  S
O1652      H1708   0.990       .  S
O1652      H1716   0.990       .  S
O1653      C1673   1.286       .  A
O1654      C1675   1.287       .  A
O1655     Zr1665   2.440       .  S
O1655      C1674   1.286       .  A
O1656     Zr1664   2.432       .  S
O1656      C1675   1.283       .  A
O1657      C1674   1.283       .  A
O1658     Zr1666   2.394       .  S
O1658      C1673   1.277       .  A
O1659     Zr1664   2.399       .  S
O1659     Zr1666   2.389       .  S
O1660     Zr1665   2.392       .  S
O1660     Zr1666   2.376       .  S
O1660      H1695   0.967       .  S
O1661     Zr1664   2.401       .  S
O1661     Zr1681   2.383       .  S
O1661      H1698   0.965       .  S
O1662     Zr1665   2.399       .  S
O1662     Zr1681   2.403       .  S
Zr1663     O1688   2.445       .  S
Zr1663     O1682   2.413       .  S
Zr1663     O1690   2.423       .  S
Zr1663     O1678   2.435       .  S
Zr1663     O1669   2.396       .  S
Zr1663     O1670   2.396       .  S
Zr1663     O1671   2.376       .  S
Zr1663     O1672   2.386       .  S
Zr1664     O1683   2.439       .  S
Zr1664     O1676   2.435       .  S
Zr1664     O1677   2.425       .  S
Zr1664     O1670   2.394       .  S
Zr1664     O1671   2.386       .  S
Zr1665     O1667   2.435       .  S
Zr1665     O1689   2.435       .  S
Zr1665     O1691   2.446       .  S
Zr1665     O1669   2.393       .  S
Zr1665     O1672   2.391       .  S
Zr1666     O1692   2.435       .  S
Zr1666     O1693   2.435       .  S
Zr1666     O1668   2.436       .  S
Zr1666     O1669   2.391       .  S
Zr1666     O1670   2.380       .  S
O1667      H1704   0.990       .  S
O1668      H1699   0.990       .  S
O1668      H1713   0.990       .  S
O1670      H1696   0.966       .  S
O1671     Zr1681   2.373       .  S
O1672     Zr1681   2.365       .  S
O1672      H1697   0.966       .  S
C1673      C3077   1.483       .  S
C1674      C3034   1.490       .  S
C1675      C3286   1.489       .  S
O1676      H1712   0.990       .  S
O1677      C1679   1.285       .  A
O1678      C1679   1.285       .  A
C1679      C3049   1.490       .  S
O1680     Zr1681   2.438       .  S
O1680      H1709   0.990       .  S
Zr1681     O1684   2.437       .  S
Zr1681     O1685   2.437       .  S
Zr1681     O1686   2.434       .  S
O1682      C1687   1.281       .  A
O1683      H1700   0.990       .  S
O1683      H1715   0.990       .  S
O1684      H1701   0.990       .  S
O1685      H1705   0.990       .  S
O1685      H1714   0.990       .  S
O1686      C1687   1.285       .  A
C1687      C3118   1.489       .  S
O1688      H1707   0.990       .  S
O1688      H1711   0.990       .  S
O1689      H1703   0.990       .  S
O1689      H1710   0.990       .  S
O1690      C1694   1.284       .  A
O1691      C1694   1.287       .  A
O1692      H1702   0.990       .  S
O1693      H1706   0.990       .  S
C1694      C3146   1.493       .  S
Zr1717     O1718   2.437       .  S
Zr1717     O1719   2.419       .  S
Zr1717     O1720   2.426       .  S
Zr1717     O1723   2.405       .  S
Zr1717     O1725   2.377       .  S
Zr1717     O1726   2.381       .  S
Zr1717     O1727   2.396       .  S
Zr1717     O1728   2.401       .  S
O1718      H1774   0.990       .  S
O1718      H1782   0.990       .  S
O1719      C1739   1.281       .  A
O1720      C1741   1.284       .  A
O1721     Zr1731   2.434       .  S
O1721      C1740   1.283       .  A
O1722     Zr1730   2.443       .  S
O1722      C1741   1.287       .  A
O1723      C1740   1.280       .  A
O1724     Zr1732   2.445       .  S
O1724      C1739   1.286       .  A
O1725     Zr1730   2.390       .  S
O1725     Zr1732   2.366       .  S
O1726     Zr1731   2.386       .  S
O1726     Zr1732   2.377       .  S
O1726      H1761   0.966       .  S
O1727     Zr1730   2.394       .  S
O1727     Zr1747   2.399       .  S
O1727      H1764   0.966       .  S
O1728     Zr1731   2.385       .  S
O1728     Zr1747   2.391       .  S
Zr1729     O1754   2.441       .  S
Zr1729     O1748   2.443       .  S
Zr1729     O1756   2.449       .  S
Zr1729     O1744   2.439       .  S
Zr1729     O1735   2.398       .  S
Zr1729     O1736   2.417       .  S
Zr1729     O1737   2.375       .  S
Zr1729     O1738   2.388       .  S
Zr1730     O1749   2.437       .  S
Zr1730     O1742   2.433       .  S
Zr1730     O1743   2.430       .  S
Zr1730     O1736   2.405       .  S
Zr1730     O1737   2.389       .  S
Zr1731     O1733   2.435       .  S
Zr1731     O1755   2.441       .  S
Zr1731     O1757   2.422       .  S
Zr1731     O1735   2.389       .  S
Zr1731     O1738   2.393       .  S
Zr1732     O1758   2.435       .  S
Zr1732     O1759   2.435       .  S
Zr1732     O1734   2.436       .  S
Zr1732     O1735   2.389       .  S
Zr1732     O1736   2.416       .  S
O1733      H1770   0.990       .  S
O1734      H1765   0.990       .  S
O1734      H1779   0.990       .  S
O1736      H1762   0.966       .  S
O1737     Zr1747   2.373       .  S
O1738     Zr1747   2.393       .  S
O1738      H1763   0.966       .  S
C1739      C3006   1.482       .  S
C1740      C3174   1.467       .  S
C1741      C3777   1.487       .  S
O1742      H1778   0.990       .  S
O1743      C1745   1.284       .  A
O1744      C1745   1.285       .  A
C1745      C3189   1.495       .  S
O1746     Zr1747   2.439       .  S
O1746      H1775   0.990       .  S
Zr1747     O1750   2.436       .  S
Zr1747     O1751   2.440       .  S
Zr1747     O1752   2.407       .  S
O1748      C1753   1.285       .  A
O1749      H1766   0.990       .  S
O1749      H1781   0.990       .  S
O1750      H1767   0.990       .  S
O1751      H1771   0.990       .  S
O1751      H1780   0.989       .  S
O1752      C1753   1.279       .  A
C1753      C2965   1.474       .  S
O1754      H1773   0.990       .  S
O1754      H1777   0.991       .  S
O1755      H1769   0.990       .  S
O1755      H1776   0.990       .  S
O1756      C1760   1.287       .  A
O1757      C1760   1.283       .  A
O1758      H1768   0.990       .  S
O1759      H1772   0.990       .  S
C1760      C2937   1.480       .  S
Zr1783     O1784   2.440       .  S
Zr1783     O1785   2.438       .  S
Zr1783     O1786   2.451       .  S
Zr1783     O1789   2.406       .  S
Zr1783     O1791   2.377       .  S
Zr1783     O1792   2.388       .  S
Zr1783     O1793   2.398       .  S
Zr1783     O1794   2.411       .  S
O1784      H1840   0.990       .  S
O1784      H1848   0.990       .  S
O1785      C1805   1.284       .  A
O1786      C1807   1.287       .  A
O1787     Zr1797   2.451       .  S
O1787      C1806   1.289       .  A
O1788     Zr1796   2.431       .  S
O1788      C1807   1.285       .  A
O1789      C1806   1.280       .  A
O1790     Zr1798   2.415       .  S
O1790      C1805   1.280       .  A
O1791     Zr1796   2.389       .  S
O1791     Zr1798   2.385       .  S
O1792     Zr1797   2.387       .  S
O1792     Zr1798   2.368       .  S
O1792      H1827   0.966       .  S
O1793     Zr1796   2.395       .  S
O1793     Zr1813   2.382       .  S
O1793      H1830   0.964       .  S
O1794     Zr1797   2.396       .  S
O1794     Zr1813   2.398       .  S
Zr1795     O1820   2.442       .  S
Zr1795     O1814   2.435       .  S
Zr1795     O1822   2.437       .  S
Zr1795     O1810   2.440       .  S
Zr1795     O1801   2.405       .  S
Zr1795     O1802   2.403       .  S
Zr1795     O1803   2.372       .  S
Zr1795     O1804   2.386       .  S
Zr1796     O1815   2.435       .  S
Zr1796     O1808   2.435       .  S
Zr1796     O1809   2.418       .  S
Zr1796     O1802   2.393       .  S
Zr1796     O1803   2.388       .  S
Zr1797     O1799   2.434       .  S
Zr1797     O1821   2.437       .  S
Zr1797     O1823   2.449       .  S
Zr1797     O1801   2.397       .  S
Zr1797     O1804   2.395       .  S
Zr1798     O1824   2.437       .  S
Zr1798     O1825   2.435       .  S
Zr1798     O1800   2.439       .  S
Zr1798     O1801   2.402       .  S
Zr1798     O1802   2.387       .  S
O1799      H1836   0.990       .  S
O1800      H1831   0.990       .  S
O1800      H1845   0.990       .  S
O1802      H1828   0.966       .  S
O1803     Zr1813   2.372       .  S
O1804     Zr1813   2.365       .  S
O1804      H1829   0.966       .  S
C1805      C2866   1.471       .  S
C1806      C3090   1.476   1_545  S
C1807      C2950   1.498       .  S
O1808      H1844   0.990       .  S
O1809      C1811   1.283       .  A
O1810      C1811   1.287       .  A
C1811      C3105   1.480       .  S
O1812     Zr1813   2.438       .  S
O1812      H1841   0.990       .  S
Zr1813     O1816   2.437       .  S
Zr1813     O1817   2.439       .  S
Zr1813     O1818   2.432       .  S
O1814      C1819   1.285       .  A
O1815      H1832   0.990       .  S
O1815      H1847   0.990       .  S
O1816      H1833   0.990       .  S
O1817      H1837   0.990       .  S
O1817      H1846   0.990       .  S
O1818      C1819   1.285       .  A
C1819      C2881   1.497       .  S
O1820      H1839   0.990       .  S
O1820      H1843   0.990       .  S
O1821      H1835   0.990       .  S
O1821      H1842   0.990       .  S
O1822      C1826   1.286       .  A
O1823      C1826   1.289       .  A
O1824      H1834   0.990       .  S
O1825      H1838   0.990       .  S
C1826      C2909   1.491       .  S
Zr1849     O1850   2.439       .  S
Zr1849     O1851   2.436       .  S
Zr1849     O1852   2.435       .  S
Zr1849     O1855   2.443       .  S
Zr1849     O1857   2.378       .  S
Zr1849     O1858   2.383       .  S
Zr1849     O1859   2.408       .  S
Zr1849     O1860   2.396       .  S
O1850      H1906   0.990       .  S
O1850      H1914   0.990       .  S
O1851      C1871   1.285       .  A
O1852      C1873   1.286       .  A
O1853     Zr1863   2.431       .  S
O1853      C1872   1.285       .  A
O1854     Zr1862   2.423       .  S
O1854      C1873   1.283       .  A
O1855      C1872   1.288       .  A
O1856     Zr1864   2.429       .  S
O1856      C1871   1.284       .  A
O1857     Zr1862   2.386       .  S
O1857     Zr1864   2.359       .  S
O1858     Zr1863   2.387       .  S
O1858     Zr1864   2.382       .  S
O1858      H1893   0.965       .  S
O1859     Zr1862   2.398       .  S
O1859     Zr1879   2.399       .  S
O1859      H1896   0.966       .  S
O1860     Zr1863   2.387       .  S
O1860     Zr1879   2.382       .  S
Zr1861     O1886   2.441       .  S
Zr1861     O1880   2.452       .  S
Zr1861     O1888   2.464       .  S
Zr1861     O1876   2.440       .  S
Zr1861     O1867   2.391       .  S
Zr1861     O1868   2.415       .  S
Zr1861     O1869   2.384       .  S
Zr1861     O1870   2.386       .  S
Zr1862     O1881   2.435       .  S
Zr1862     O1874   2.436       .  S
Zr1862     O1875   2.431       .  S
Zr1862     O1868   2.398       .  S
Zr1862     O1869   2.390       .  S
Zr1863     O1865   2.435       .  S
Zr1863     O1887   2.438       .  S
Zr1863     O1889   2.431       .  S
Zr1863     O1867   2.381       .  S
Zr1863     O1870   2.393       .  S
Zr1864     O1890   2.434       .  S
Zr1864     O1891   2.434       .  S
Zr1864     O1866   2.438       .  S
Zr1864     O1867   2.382       .  S
Zr1864     O1868   2.409       .  S
O1865      H1902   0.990       .  S
O1866      H1897   0.990   1_545  S
O1866      H1911   0.990       .  S
O1868      H1894   0.966       .  S
O1869     Zr1879   2.380       .  S
O1870     Zr1879   2.395       .  S
O1870      H1895   0.966       .  S
C1871      C3230   1.481   1_545  S
C1872      C2993   1.486       .  S
C1873      C3314   1.483       .  S
O1874      H1910   0.990       .  S
O1875      C1877   1.285       .  A
O1876      C1877   1.284       .  A
C1877      C2978   1.495       .  S
O1878     Zr1879   2.441       .  S
O1878      H1907   0.990       .  S
Zr1879     O1882   2.439       .  S
Zr1879     O1883   2.439       .  S
Zr1879     O1884   2.402       .  S
O1880      C1885   1.286       .  A
O1881      H1898   0.990       .  S
O1881      H1913   0.990       .  S
O1882      H1899   0.991       .  S
O1883      H1903   0.990       .  S
O1883      H1912   0.989       .  S
O1884      C1885   1.278       .  A
C1885      C3245   1.481       .  S
O1886      H1905   0.990       .  S
O1886      H1909   0.990       .  S
O1887      H1901   0.990       .  S
O1887      H1908   0.990       .  S
O1888      C1892   1.291       .  A
O1889      C1892   1.284       .  A
O1890      H1900   0.990       .  S
O1891      H1904   0.990       .  S
C1892      C2825   1.493       .  S
Zr1915     O1916   2.442       .  S
Zr1915     O1917   2.458       .  S
Zr1915     O1918   2.471       .  S
Zr1915     O1921   2.412       .  S
Zr1915     O1923   2.382       .  S
Zr1915     O1924   2.388       .  S
Zr1915     O1925   2.406       .  S
Zr1915     O1926   2.417       .  S
O1916      H1972   0.990       .  S
O1916      H1980   0.990       .  S
O1917      C1937   1.288       .  A
O1918      C1939   1.290       .  A
O1919     Zr1929   2.439       .  S
O1919      C1938   1.286       .  A
O1920     Zr1928   2.427       .  S
O1920      C1939   1.283       .  A
O1921      C1938   1.282       .  A
O1922     Zr1930   2.410       .  S
O1922      C1937   1.280       .  A
O1923     Zr1928   2.397       .  S
O1923     Zr1930   2.393       .  S
O1924     Zr1929   2.393       .  S
O1924     Zr1930   2.372       .  S
O1924      H1959   0.966       .  S
O1925     Zr1928   2.398       .  S
O1925     Zr1945   2.385       .  S
O1925      H1962   0.965       .  S
O1926     Zr1929   2.398       .  S
O1926     Zr1945   2.401       .  S
Zr1927     O1952   2.441       .  S
Zr1927     O1946   2.409       .  S
Zr1927     O1954   2.436       .  S
Zr1927     O1942   2.439       .  S
Zr1927     O1933   2.397       .  S
Zr1927     O1934   2.400       .  S
Zr1927     O1935   2.378       .  S
Zr1927     O1936   2.386       .  S
Zr1928     O1947   2.438       .  S
Zr1928     O1940   2.434       .  S
Zr1928     O1941   2.425       .  S
Zr1928     O1934   2.397       .  S
Zr1928     O1935   2.383       .  S
Zr1929     O1931   2.435       .  S
Zr1929     O1953   2.435       .  S
Zr1929     O1955   2.451       .  S
Zr1929     O1933   2.393       .  S
Zr1929     O1936   2.392       .  S
Zr1930     O1956   2.436       .  S
Zr1930     O1957   2.436       .  S
Zr1930     O1932   2.435       .  S
Zr1930     O1933   2.397       .  S
Zr1930     O1934   2.383       .  S
O1931      H1968   0.990       .  S
O1932      H1963   0.990       .  S
O1932      H1977   0.990       .  S
O1934      H1960   0.966       .  S
O1935     Zr1945   2.371       .  S
O1936     Zr1945   2.362       .  S
O1936      H1961   0.966       .  S
C1937      C3021   1.484       .  S
C1938      C2853   1.488   1_655  S
C1939      C2838   1.488       .  S
O1940      H1976   0.990       .  S
O1941      C1943   1.284       .  A
O1942      C1943   1.287       .  A
C1943      C2894   1.483       .  S
O1944     Zr1945   2.439       .  S
O1944      H1973   0.990       .  S
Zr1945     O1948   2.437       .  S
Zr1945     O1949   2.440       .  S
Zr1945     O1950   2.438       .  S
O1946      C1951   1.281       .  A
O1947      H1964   0.990       .  S
O1947      H1979   0.990       .  S
O1948      H1965   0.990       .  S
O1949      H1969   0.990       .  S
O1949      H1978   0.990       .  S
O1950      C1951   1.285       .  A
C1951      C3062   1.483       .  S
O1952      H1971   0.990       .  S
O1952      H1975   0.990       .  S
O1953      H1967   0.990       .  S
O1953      H1974   0.990       .  S
O1954      C1958   1.286       .  A
O1955      C1958   1.289       .  A
O1956      H1966   0.990       .  S
O1957      H1970   0.990       .  S
C1958      C2810   1.493       .  S
Zr1981     O1982   2.445       .  S
Zr1981     O1983   2.457       .  S
Zr1981     O1984   2.459       .  S
Zr1981     O1987   2.429       .  S
Zr1981     O1989   2.383       .  S
Zr1981     O1990   2.387       .  S
Zr1981     O1991   2.408       .  S
Zr1981     O1992   2.418       .  S
O1982      H2038   0.991       .  S
O1982      H2046   0.991       .  S
O1983      C2003   1.287       .  A
O1984      C2005   1.287       .  A
O1985     Zr1995   2.438       .  S
O1985      C2004   1.286       .  A
O1986     Zr1994   2.427       .  S
O1986      C2005   1.284       .  A
O1987      C2004   1.284       .  A
O1988     Zr1996   2.401       .  S
O1988      C2003   1.279       .  A
O1989     Zr1994   2.402       .  S
O1989     Zr1996   2.388       .  S
O1990     Zr1995   2.396       .  S
O1990     Zr1996   2.373       .  S
O1990      H2025   0.966       .  S
O1991     Zr1994   2.399       .  S
O1991     Zr2011   2.382       .  S
O1991      H2028   0.964       .  S
O1992     Zr1995   2.396       .  S
O1992     Zr2011   2.399       .  S
Zr1993     O2018   2.442       .  S
Zr1993     O2012   2.423       .  S
Zr1993     O2020   2.418       .  S
Zr1993     O2008   2.444       .  S
Zr1993     O1999   2.399       .  S
Zr1993     O2000   2.394       .  S
Zr1993     O2001   2.375       .  S
Zr1993     O2002   2.388       .  S
Zr1994     O2013   2.436       .  S
Zr1994     O2006   2.433       .  S
Zr1994     O2007   2.437       .  S
Zr1994     O2000   2.395       .  S
Zr1994     O2001   2.384       .  S
Zr1995     O1997   2.435       .  S
Zr1995     O2019   2.434       .  S
Zr1995     O2021   2.454       .  S
Zr1995     O1999   2.390       .  S
Zr1995     O2002   2.388       .  S
Zr1996     O2022   2.436       .  S
Zr1996     O2023   2.433       .  S
Zr1996     O1998   2.435       .  S
Zr1996     O1999   2.392       .  S
Zr1996     O2000   2.381       .  S
O1997      H2034   0.990       .  S
O1998      H2029   0.990       .  S
O1998      H2043   0.990       .  S
O2000      H2026   0.966       .  S
O2001     Zr2011   2.378       .  S
O2002     Zr2011   2.361       .  S
O2002      H2027   0.966       .  S
C2003      C2685   1.482       .  S
C2004      C2741   1.484       .  S
C2005      C2769   1.480       .  S
O2006      H2042   0.990       .  S
O2007      C2009   1.287       .  A
O2008      C2009   1.287       .  A
C2009      C2713   1.491       .  S
O2010     Zr2011   2.439       .  S
O2010      H2039   0.990       .  S
Zr2011     O2014   2.438       .  S
Zr2011     O2015   2.438       .  S
Zr2011     O2016   2.431       .  S
O2012      C2017   1.284       .  A
O2013      H2030   0.990       .  S
O2013      H2045   0.990       .  S
O2014      H2031   0.990       .  S
O2015      H2035   0.990       .  S
O2015      H2044   0.990       .  S
O2016      C2017   1.284       .  A
C2017      C2657   1.485       .  S
O2018      H2037   0.991       .  S
O2018      H2041   0.989       .  S
O2019      H2033   0.990       .  S
O2019      H2040   0.990       .  S
O2020      C2024   1.282       .  A
O2021      C2024   1.289       .  A
O2022      H2032   0.989       .  S
O2023      H2036   0.990       .  S
C2024      C3133   1.483       .  S
Zr2047     O2048   2.438       .  S
Zr2047     O2049   2.421       .  S
Zr2047     O2050   2.434       .  S
Zr2047     O2053   2.431       .  S
Zr2047     O2055   2.378       .  S
Zr2047     O2056   2.383       .  S
Zr2047     O2057   2.403       .  S
Zr2047     O2058   2.397       .  S
O2048      H2104   0.991       .  S
O2048      H2112   0.990       .  S
O2049      C2069   1.283       .  A
O2050      C2071   1.285       .  A
O2051     Zr2061   2.434       .  S
O2051      C2070   1.285       .  A
O2052     Zr2060   2.441       .  S
O2052      C2071   1.287       .  A
O2053      C2070   1.285       .  A
O2054     Zr2062   2.428       .  S
O2054      C2069   1.283       .  A
O2055     Zr2060   2.388       .  S
O2055     Zr2062   2.366       .  S
O2056     Zr2061   2.385       .  S
O2056     Zr2062   2.382       .  S
O2056      H2091   0.965       .  S
O2057     Zr2060   2.398       .  S
O2057     Zr2077   2.403       .  S
O2057      H2094   0.966       .  S
O2058     Zr2061   2.385       .  S
O2058     Zr2077   2.386       .  S
Zr2059     O2084   2.444       .  S
Zr2059     O2078   2.454       .  S
Zr2059     O2086   2.463       .  S
Zr2059     O2074   2.420       .  S
Zr2059     O2065   2.393       .  S
Zr2059     O2066   2.416       .  S
Zr2059     O2067   2.381       .  S
Zr2059     O2068   2.386       .  S
Zr2060     O2079   2.434       .  S
Zr2060     O2072   2.434       .  S
Zr2060     O2073   2.434       .  S
Zr2060     O2066   2.397       .  S
Zr2060     O2067   2.390       .  S
Zr2061     O2063   2.435       .  S
Zr2061     O2085   2.439       .  S
Zr2061     O2087   2.421       .  S
Zr2061     O2065   2.388       .  S
Zr2061     O2068   2.396       .  S
Zr2062     O2088   2.435       .  S
Zr2062     O2089   2.435       .  S
Zr2062     O2064   2.437       .  S
Zr2062     O2065   2.387       .  S
Zr2062     O2066   2.402       .  S
O2063      H2100   0.990       .  S
O2064      H2095   0.990       .  S
O2064      H2109   0.990       .  S
O2066      H2092   0.965       .  S
O2067     Zr2077   2.377       .  S
O2068     Zr2077   2.396       .  S
O2068      H2093   0.966       .  S
C2069      C2573   1.481       .  S
C2070      C2642   1.478       .  S
C2071      C4645   1.489       .  S
O2072      H2108   0.990       .  S
O2073      C2075   1.285       .  A
O2074      C2075   1.282       .  A
C2075      C2601   1.489       .  S
O2076     Zr2077   2.441       .  S
O2076      H2105   0.990       .  S
Zr2077     O2080   2.438       .  S
Zr2077     O2081   2.440       .  S
Zr2077     O2082   2.410       .  S
O2078      C2083   1.287       .  A
O2079      H2096   0.990       .  S
O2079      H2111   0.990       .  S
O2080      H2097   0.990       .  S
O2081      H2101   0.990       .  S
O2081      H2110   0.990       .  S
O2082      C2083   1.280       .  A
C2083      C2558   1.477       .  S
O2084      H2103   0.990       .  S
O2084      H2107   0.991       .  S
O2085      H2099   0.990       .  S
O2085      H2106   0.990       .  S
O2086      C2090   1.288       .  A
O2087      C2090   1.282       .  A
O2088      H2098   0.990       .  S
O2089      H2102   0.990       .  S
C2090      C2782   1.487       .  S
Zr2113     O2114   2.440       .  S
Zr2113     O2115   2.460       .  S
Zr2113     O2116   2.447       .  S
Zr2113     O2119   2.414       .  S
Zr2113     O2121   2.375       .  S
Zr2113     O2122   2.383       .  S
Zr2113     O2123   2.410   1_455  S
Zr2113     O2124   2.417       .  S
O2114      H2170   0.990       .  S
O2114      H2178   0.990       .  S
O2115      C2135   1.288       .  A
O2116      C2137   1.286       .  A
O2117     Zr2127   2.442       .  S
O2117      C2136   1.287       .  A
O2118     Zr2126   2.424       .  S
O2118      C2137   1.283   1_655  A
O2119      C2136   1.281       .  A
O2120     Zr2128   2.408       .  S
O2120      C2135   1.280       .  A
O2121     Zr2126   2.392   1_455  S
O2121     Zr2128   2.382       .  S
O2122     Zr2127   2.396       .  S
O2122     Zr2128   2.374       .  S
O2122      H2157   0.966       .  S
O2123     Zr2126   2.398       .  S
O2123     Zr2143   2.396       .  S
O2123      H2160   0.965       .  S
O2124     Zr2127   2.395       .  S
O2124     Zr2143   2.408   1_455  S
Zr2125     O2150   2.438       .  S
Zr2125     O2144   2.413       .  S
Zr2125     O2152   2.433       .  S
Zr2125     O2140   2.439       .  S
Zr2125     O2131   2.401   1_655  S
Zr2125     O2132   2.397       .  S
Zr2125     O2133   2.378       .  S
Zr2125     O2134   2.383       .  S
Zr2126     O2145   2.438       .  S
Zr2126     O2138   2.434       .  S
Zr2126     O2139   2.420       .  S
Zr2126     O2132   2.395       .  S
Zr2126     O2133   2.386       .  S
Zr2127     O2129   2.434       .  S
Zr2127     O2151   2.435       .  S
Zr2127     O2153   2.445       .  S
Zr2127     O2131   2.396       .  S
Zr2127     O2134   2.388   1_455  S
Zr2128     O2154   2.434       .  S
Zr2128     O2155   2.435       .  S
Zr2128     O2130   2.437       .  S
Zr2128     O2131   2.399       .  S
Zr2128     O2132   2.382   1_455  S
O2129      H2166   0.990       .  S
O2130      H2161   0.990       .  S
O2130      H2175   0.990       .  S
O2132      H2158   0.966       .  S
O2133     Zr2143   2.369       .  S
O2134     Zr2143   2.361       .  S
O2134      H2159   0.965       .  S
C2135      C2502   1.487       .  S
C2136      C2698   1.485       .  S
C2137      C2517   1.495       .  S
O2138      H2174   0.990       .  S
O2139      C2141   1.284       .  A
O2140      C2141   1.287       .  A
C2141      C2670   1.486       .  S
O2142     Zr2143   2.439       .  S
O2142      H2171   0.991       .  S
Zr2143     O2146   2.437       .  S
Zr2143     O2147   2.439       .  S
Zr2143     O2148   2.449       .  S
O2144      C2149   1.281       .  A
O2145      H2162   0.990       .  S
O2145      H2177   0.990       .  S
O2146      H2163   0.990       .  S
O2147      H2167   0.990       .  S
O2147      H2176   0.989       .  S
O2148      C2149   1.287       .  A
C2149      C2461   1.484       .  S
O2150      H2169   0.990       .  S
O2150      H2173   0.990       .  S
O2151      H2165   0.990       .  S
O2151      H2172   0.990       .  S
O2152      C2156   1.287       .  A
O2153      C2156   1.288   1_455  A
O2154      H2164   0.989       .  S
O2155      H2168   0.990   1_455  S
C2156      C2797   1.496       .  S
Zr2179     O2180   2.440       .  S
Zr2179     O2181   2.418       .  S
Zr2179     O2182   2.434       .  S
Zr2179     O2185   2.432       .  S
Zr2179     O2187   2.383       .  S
Zr2179     O2188   2.382       .  S
Zr2179     O2189   2.401   1_455  S
Zr2179     O2190   2.397       .  S
O2180      H2236   0.991       .  S
O2180      H2244   0.990       .  S
O2181      C2201   1.282       .  A
O2182      C2203   1.286       .  A
O2183     Zr2193   2.423       .  S
O2183      C2202   1.282       .  A
O2184     Zr2192   2.436       .  S
O2184      C2203   1.286   1_655  A
O2185      C2202   1.285       .  A
O2186     Zr2194   2.444       .  S
O2186      C2201   1.287       .  A
O2187     Zr2192   2.394   1_455  S
O2187     Zr2194   2.365       .  S
O2188     Zr2193   2.387       .  S
O2188     Zr2194   2.380       .  S
O2188      H2223   0.966       .  S
O2189     Zr2192   2.400       .  S
O2189     Zr2209   2.396       .  S
O2189      H2226   0.966       .  S
O2190     Zr2193   2.390       .  S
O2190     Zr2209   2.388   1_455  S
Zr2191     O2216   2.441       .  S
Zr2191     O2210   2.453       .  S
Zr2191     O2218   2.438       .  S
Zr2191     O2206   2.425       .  S
Zr2191     O2197   2.390   1_655  S
Zr2191     O2198   2.418       .  S
Zr2191     O2199   2.380       .  S
Zr2191     O2200   2.382       .  S
Zr2192     O2211   2.434       .  S
Zr2192     O2204   2.436       .  S
Zr2192     O2205   2.445       .  S
Zr2192     O2198   2.399       .  S
Zr2192     O2199   2.396       .  S
Zr2193     O2195   2.436       .  S
Zr2193     O2217   2.438       .  S
Zr2193     O2219   2.429       .  S
Zr2193     O2197   2.377       .  S
Zr2193     O2200   2.387   1_455  S
Zr2194     O2220   2.436       .  S
Zr2194     O2221   2.436       .  S
Zr2194     O2196   2.436       .  S
Zr2194     O2197   2.382       .  S
Zr2194     O2198   2.412   1_455  S
O2195      H2232   0.990       .  S
O2196      H2227   0.990       .  S
O2196      H2241   0.990       .  S
O2198      H2224   0.966       .  S
O2199     Zr2209   2.381       .  S
O2200     Zr2209   2.393       .  S
O2200      H2225   0.965       .  S
C2201      C2433   1.483       .  S
C2202      C2586   1.476       .  S
C2203      C4322   1.494       .  S
O2204      H2240   0.990       .  S
O2205      C2207   1.287       .  A
O2206      C2207   1.281       .  A
C2207      C2545   1.496       .  S
O2208     Zr2209   2.440       .  S
O2208      H2237   0.990       .  S
Zr2209     O2212   2.437       .  S
Zr2209     O2213   2.438       .  S
Zr2209     O2214   2.406       .  S
O2210      C2215   1.287       .  A
O2211      H2228   0.990       .  S
O2211      H2243   0.990       .  S
O2212      H2229   0.990       .  S
O2213      H2233   0.990       .  S
O2213      H2242   0.990       .  S
O2214      C2215   1.279       .  A
C2215      C2405   1.477       .  S
O2216      H2235   0.990       .  S
O2216      H2239   0.990       .  S
O2217      H2231   0.990       .  S
O2217      H2238   0.990       .  S
O2218      C2222   1.284       .  A
O2219      C2222   1.284   1_455  A
O2220      H2230   0.990       .  S
O2221      H2234   0.991   1_455  S
C2222      C2530   1.473       .  S
Zr2245     O2246   2.439       .  S
Zr2245     O2247   2.453       .  S
Zr2245     O2248   2.451       .  S
Zr2245     O2251   2.421       .  S
Zr2245     O2253   2.379       .  S
Zr2245     O2254   2.384       .  S
Zr2245     O2255   2.409       .  S
Zr2245     O2256   2.411       .  S
O2246      H2302   0.990       .  S
O2246      H2310   0.990       .  S
O2247      C2267   1.287       .  A
O2248      C2269   1.287       .  A
O2249     Zr2259   2.450       .  S
O2249      C2268   1.288       .  A
O2250     Zr2258   2.432   1_565  S
O2250      C2269   1.284       .  A
O2251      C2268   1.282       .  A
O2252     Zr2260   2.407       .  S
O2252      C2267   1.279       .  A
O2253     Zr2258   2.392   1_565  S
O2253     Zr2260   2.386       .  S
O2254     Zr2259   2.392       .  S
O2254     Zr2260   2.375       .  S
O2254      H2289   0.966       .  S
O2255     Zr2258   2.400   1_565  S
O2255     Zr2275   2.382   1_565  S
O2255      H2292   0.964       .  S
O2256     Zr2259   2.394       .  S
O2256     Zr2275   2.401   1_565  S
Zr2257     O2282   2.441       .  S
Zr2257     O2276   2.425       .  S
Zr2257     O2284   2.431       .  S
Zr2257     O2272   2.437       .  S
Zr2257     O2263   2.402   1_545  S
Zr2257     O2264   2.402       .  S
Zr2257     O2265   2.376       .  S
Zr2257     O2266   2.383       .  S
Zr2258     O2277   2.437       .  S
Zr2258     O2270   2.436       .  S
Zr2258     O2271   2.427       .  S
Zr2258     O2264   2.400       .  S
Zr2258     O2265   2.390       .  S
Zr2259     O2261   2.435       .  S
Zr2259     O2283   2.435       .  S
Zr2259     O2285   2.449       .  S
Zr2259     O2263   2.395       .  S
Zr2259     O2266   2.393   1_565  S
Zr2260     O2286   2.437       .  S
Zr2260     O2287   2.437       .  S
Zr2260     O2262   2.435       .  S
Zr2260     O2263   2.397       .  S
Zr2260     O2264   2.387   1_565  S
O2261      H2298   0.990       .  S
O2262      H2293   0.990       .  S
O2262      H2307   0.990       .  S
O2264      H2290   0.965       .  S
O2265     Zr2275   2.371       .  S
O2266     Zr2275   2.361       .  S
O2266      H2291   0.966       .  S
C2267      C2754   1.478       .  S
C2268      C2489   1.488       .  S
C2269      C2377   1.486       .  S
O2270      H2306   0.990       .  S
O2271      C2273   1.284       .  A
O2272      C2273   1.287       .  A
C2273      C2474   1.489       .  S
O2274     Zr2275   2.438   1_565  S
O2274      H2303   0.990   1_565  S
Zr2275     O2278   2.437       .  S
Zr2275     O2279   2.438       .  S
Zr2275     O2280   2.433       .  S
O2276      C2281   1.283       .  A
O2277      H2294   0.990       .  S
O2277      H2309   0.990       .  S
O2278      H2295   0.990       .  S
O2279      H2299   0.990       .  S
O2279      H2308   0.990   1_545  S
O2280      C2281   1.284       .  A
C2281      C2726   1.490       .  S
O2282      H2301   0.990       .  S
O2282      H2305   0.990       .  S
O2283      H2297   0.990       .  S
O2283      H2304   0.990       .  S
O2284      C2288   1.286       .  A
O2285      C2288   1.289   1_565  A
O2286      H2296   0.990       .  S
O2287      H2300   0.990       .  S
C2288      C2922   1.496       .  S
Zr2311     O2312   2.438       .  S
Zr2311     O2313   2.412       .  S
Zr2311     O2314   2.444       .  S
Zr2311     O2317   2.448       .  S
Zr2311     O2319   2.385       .  S
Zr2311     O2320   2.386       .  S
Zr2311     O2321   2.401       .  S
Zr2311     O2322   2.396       .  S
O2312      H2368   0.990       .  S
O2312      H2376   0.990       .  S
O2313      C2333   1.281       .  A
O2314      C2335   1.288       .  A
O2315     Zr2325   2.439       .  S
O2315      C2334   1.286       .  A
O2316     Zr2324   2.436   1_565  S
O2316      C2335   1.286       .  A
O2317      C2334   1.289       .  A
O2318     Zr2326   2.441       .  S
O2318      C2333   1.286       .  A
O2319     Zr2324   2.392   1_565  S
O2319     Zr2326   2.364       .  S
O2320     Zr2325   2.386       .  S
O2320     Zr2326   2.377       .  S
O2320      H2355   0.965       .  S
O2321     Zr2324   2.400   1_565  S
O2321     Zr2341   2.389   1_565  S
O2321      H2358   0.966       .  S
O2322     Zr2325   2.390       .  S
O2322     Zr2341   2.384   1_565  S
Zr2323     O2348   2.438       .  S
Zr2323     O2342   2.456       .  S
Zr2323     O2350   2.443       .  S
Zr2323     O2338   2.429       .  S
Zr2323     O2329   2.391   1_545  S
Zr2323     O2330   2.421       .  S
Zr2323     O2331   2.381       .  S
Zr2323     O2332   2.387       .  S
Zr2324     O2343   2.436       .  S
Zr2324     O2336   2.435       .  S
Zr2324     O2337   2.442       .  S
Zr2324     O2330   2.397       .  S
Zr2324     O2331   2.393       .  S
Zr2325     O2327   2.435       .  S
Zr2325     O2349   2.437       .  S
Zr2325     O2351   2.436       .  S
Zr2325     O2329   2.378       .  S
Zr2325     O2332   2.393   1_565  S
Zr2326     O2352   2.436       .  S
Zr2326     O2353   2.435       .  S
Zr2326     O2328   2.437       .  S
Zr2326     O2329   2.385       .  S
Zr2326     O2330   2.412   1_565  S
O2327      H2364   0.990       .  S
O2328      H2359   0.990       .  S
O2328      H2373   0.990       .  S
O2330      H2356   0.966       .  S
O2331     Zr2341   2.384       .  S
O2332     Zr2341   2.395       .  S
O2332      H2357   0.966       .  S
C2333      C2629   1.478       .  S
C2334      C2446   1.498       .  S
C2335      C4434   1.490       .  S
O2336      H2372   0.990       .  S
O2337      C2339   1.287       .  A
O2338      C2339   1.281       .  A
C2339      C2418   1.498       .  S
O2340     Zr2341   2.440   1_565  S
O2340      H2369   0.990   1_565  S
Zr2341     O2344   2.437       .  S
Zr2341     O2345   2.440       .  S
Zr2341     O2346   2.397       .  S
O2342      C2347   1.286       .  A
O2343      H2360   0.990       .  S
O2343      H2375   0.990       .  S
O2344      H2361   0.990       .  S
O2345      H2365   0.990       .  S
O2345      H2374   0.990       .  S
O2346      C2347   1.279       .  A
C2347      C2614   1.487       .  S
O2348      H2367   0.990       .  S
O2348      H2371   0.989       .  S
O2349      H2363   0.990       .  S
O2349      H2370   0.990       .  S
O2350      C2354   1.285   1_545  A
O2351      C2354   1.286       .  A
O2352      H2362   0.990       .  S
O2353      H2366   0.991       .  S
C2354      C2390   1.492       .  S
C2377      C2378   1.416       .  A
C2377      C2382   1.407       .  A
C2378      C2379   1.403       .  A
C2378      N2383   1.438       .  S
C2379      C2380   1.401       .  A
C2379      H2384   1.084       .  S
C2380      C2385   1.488   1_554  S
C2380      C2381   1.411       .  A
C2381      C2382   1.409       .  A
C2381      N2386   1.438   1_565  S
C2382      H2387   1.084       .  S
N2383      H2403   1.046       .  S
N2383      H2404   1.046       .  S
C2385      C2388   1.404   1_565  A
C2385      C2392   1.409       .  A
N2386      H2401   1.046       .  S
N2386      H2402   1.045   1_545  S
C2388      C2389   1.410       .  A
C2388      H2393   1.084       .  S
C2389      C2390   1.417   1_545  A
C2389      N2394   1.437       .  S
C2390      C2391   1.407       .  A
C2391      C2392   1.403       .  A
C2391      H2395   1.083       .  S
C2392      N2396   1.438       .  S
N2394      H2397   1.046       .  S
N2394      H2398   1.046       .  S
N2396      H2399   1.046       .  S
N2396      H2400   1.045       .  S
C2405      C2406   1.411       .  A
C2405      C2410   1.402       .  A
C2406      C2407   1.401       .  A
C2406      N2411   1.433       .  S
C2407      C2408   1.401       .  A
C2407      H2412   1.084       .  S
C2408      C2413   1.484       .  S
C2408      C2409   1.414       .  A
C2409      C2410   1.407       .  A
C2409      N2414   1.438       .  S
C2410      H2415   1.083       .  S
N2411      H2431   1.046       .  S
N2411      H2432   1.046       .  S
C2413      C2416   1.397       .  A
C2413      C2420   1.411       .  A
N2414      H2429   1.046       .  S
N2414      H2430   1.046       .  S
C2416      C2417   1.400       .  A
C2416      H2421   1.084       .  S
C2417      C2418   1.420       .  A
C2417      N2422   1.431       .  S
C2418      C2419   1.409       .  A
C2419      C2420   1.408       .  A
C2419      H2423   1.083       .  S
C2420      N2424   1.438       .  S
N2422      H2425   1.046       .  S
N2422      H2426   1.046       .  S
N2424      H2427   1.046       .  S
N2424      H2428   1.046       .  S
C2433      C2434   1.412       .  A
C2433      C2438   1.407       .  A
C2434      C2435   1.409       .  A
C2434      N2439   1.437       .  S
C2435      C2436   1.404       .  A
C2435      H2440   1.084       .  S
C2436      C2441   1.483       .  S
C2436      C2437   1.409       .  A
C2437      C2438   1.405       .  A
C2437      N2442   1.438       .  S
C2438      H2443   1.084       .  S
N2439      H2459   1.046       .  S
N2439      H2460   1.046       .  S
C2441      C2444   1.398       .  A
C2441      C2448   1.409       .  A
N2442      H2457   1.046       .  S
N2442      H2458   1.044       .  S
C2444      C2445   1.406       .  A
C2444      H2449   1.084       .  S
C2445      C2446   1.420       .  A
C2445      N2450   1.437       .  S
C2446      C2447   1.410       .  A
C2447      C2448   1.412       .  A
C2447      H2451   1.083       .  S
C2448      N2452   1.438       .  S
N2450      H2453   1.046       .  S
N2450      H2454   1.045       .  S
N2452      H2455   1.045       .  S
N2452      H2456   1.044       .  S
C2461      C2462   1.418       .  A
C2461      C2466   1.405       .  A
C2462      C2463   1.405       .  A
C2462      N2467   1.439       .  S
C2463      C2464   1.400       .  A
C2463      H2468   1.084       .  S
C2464      C2469   1.481       .  S
C2464      C2465   1.409       .  A
C2465      C2466   1.406       .  A
C2465      N2470   1.438       .  S
C2466      H2471   1.084       .  S
N2467      H2487   1.046       .  S
N2467      H2488   1.046       .  S
C2469      C2472   1.400       .  A
C2469      C2476   1.408       .  A
N2470      H2485   1.045       .  S
N2470      H2486   1.046       .  S
C2472      C2473   1.404       .  A
C2472      H2477   1.084       .  S
C2473      C2474   1.418       .  A
C2473      N2478   1.438       .  S
C2474      C2475   1.408       .  A
C2475      C2476   1.406       .  A
C2475      H2479   1.083       .  S
C2476      N2480   1.438       .  S
N2478      H2481   1.046       .  S
N2478      H2482   1.046       .  S
N2480      H2483   1.046       .  S
N2480      H2484   1.046       .  S
C2489      C2490   1.414       .  A
C2489      C2494   1.409       .  A
C2490      C2491   1.410       .  A
C2490      N2495   1.437       .  S
C2491      C2492   1.403       .  A
C2491      H2496   1.084       .  S
C2492      C2497   1.482       .  S
C2492      C2493   1.406       .  A
C2493      C2494   1.406       .  A
C2493      N2498   1.438       .  S
C2494      H2499   1.084       .  S
N2495      H2515   1.045       .  S
N2495      H2516   1.046       .  S
C2497      C2500   1.398       .  A
C2497      C2504   1.412       .  A
N2498      H2513   1.045       .  S
N2498      H2514   1.045       .  S
C2500      C2501   1.402       .  A
C2500      H2505   1.084       .  S
C2501      C2502   1.413       .  A
C2501      N2506   1.433       .  S
C2502      C2503   1.405       .  A
C2503      C2504   1.412       .  A
C2503      H2507   1.082       .  S
C2504      N2508   1.438       .  S
N2506      H2509   1.045       .  S
N2506      H2510   1.046       .  S
N2508      H2511   1.046       .  S
N2508      H2512   1.045       .  S
C2517      C2518   1.417       .  A
C2517      C2522   1.411   1_455  A
C2518      C2519   1.404       .  A
C2518      N2523   1.437       .  S
C2519      C2520   1.402       .  A
C2519      H2524   1.083       .  S
C2520      C2525   1.488   1_454  S
C2520      C2521   1.409   1_455  A
C2521      C2522   1.406       .  A
C2521      N2526   1.438       .  S
C2522      H2527   1.083       .  S
N2523      H2543   1.046       .  S
N2523      H2544   1.046       .  S
C2525      C2528   1.406       .  A
C2525      C2532   1.411   1_655  A
N2526      H2541   1.046       .  S
N2526      H2542   1.045       .  S
C2528      C2529   1.408       .  A
C2528      H2533   1.083       .  S
C2529      C2530   1.409       .  A
C2529      N2534   1.438       .  S
C2530      C2531   1.402   1_655  A
C2531      C2532   1.403       .  A
C2531      H2535   1.084       .  S
C2532      N2536   1.438       .  S
N2534      H2537   1.046       .  S
N2534      H2538   1.045       .  S
N2536      H2539   1.046       .  S
N2536      H2540   1.045       .  S
C2545      C2546   1.422       .  A
C2545      C2550   1.407       .  A
C2546      C2547   1.405       .  A
C2546      N2551   1.437       .  S
C2547      C2548   1.399       .  A
C2547      H2552   1.084       .  S
C2548      C2553   1.490       .  S
C2548      C2549   1.412       .  A
C2549      C2550   1.408       .  A
C2549      N2554   1.438       .  S
C2550      H2555   1.083       .  S
N2551      H2571   1.045       .  S
N2551      H2572   1.046       .  S
C2553      C2556   1.403       .  A
C2553      C2560   1.415       .  A
N2554      H2569   1.046       .  S
N2554      H2570   1.046       .  S
C2556      C2557   1.405       .  A
C2556      H2561   1.084       .  S
C2557      C2558   1.409       .  A
C2557      N2562   1.437       .  S
C2558      C2559   1.403       .  A
C2559      C2560   1.409       .  A
C2559      H2563   1.084       .  S
C2560      N2564   1.438       .  S
N2562      H2565   1.046       .  S
N2562      H2566   1.046       .  S
N2564      H2567   1.046       .  S
N2564      H2568   1.046       .  S
C2573      C2574   1.415       .  A
C2573      C2578   1.406       .  A
C2574      C2575   1.406       .  A
C2574      N2579   1.438       .  S
C2575      C2576   1.400       .  A
C2575      H2580   1.084       .  S
C2576      C2581   1.473       .  S
C2576      C2577   1.405       .  A
C2577      C2578   1.402       .  A
C2577      N2582   1.438       .  S
C2578      H2583   1.084       .  S
N2579      H2599   1.045       .  S
N2579      H2600   1.046       .  S
C2581      C2584   1.398       .  A
C2581      C2588   1.408       .  A
N2582      H2597   1.046       .  S
N2582      H2598   1.045       .  S
C2584      C2585   1.402       .  A
C2584      H2589   1.084       .  S
C2585      C2586   1.414       .  A
C2585      N2590   1.437       .  S
C2586      C2587   1.404       .  A
C2587      C2588   1.406       .  A
C2587      H2591   1.084       .  S
C2588      N2592   1.437       .  S
N2590      H2593   1.046       .  S
N2590      H2594   1.046       .  S
N2592      H2595   1.046       .  S
N2592      H2596   1.045       .  S
C2601      C2602   1.416       .  A
C2601      C2606   1.410       .  A
C2602      C2603   1.406       .  A
C2602      N2607   1.438       .  S
C2603      C2604   1.403       .  A
C2603      H2608   1.084       .  S
C2604      C2609   1.481       .  S
C2604      C2605   1.405       .  A
C2605      C2606   1.403       .  A
C2605      N2610   1.438       .  S
C2606      H2611   1.083       .  S
N2607      H2627   1.046       .  S
N2607      H2628   1.046       .  S
C2609      C2612   1.405       .  A
C2609      C2616   1.405       .  A
N2610      H2625   1.046       .  S
N2610      H2626   1.046       .  S
C2612      C2613   1.410       .  A
C2612      H2617   1.084       .  S
C2613      C2614   1.416       .  A
C2613      N2618   1.438       .  S
C2614      C2615   1.408       .  A
C2615      C2616   1.399       .  A
C2615      H2619   1.084       .  S
C2616      N2620   1.439       .  S
N2618      H2621   1.046       .  S
N2618      H2622   1.045       .  S
N2620      H2623   1.046       .  S
N2620      H2624   1.045       .  S
C2629      C2630   1.411       .  A
C2629      C2634   1.406       .  A
C2630      C2631   1.406       .  A
C2630      N2635   1.437       .  S
C2631      C2632   1.402       .  A
C2631      H2636   1.084       .  S
C2632      C2637   1.478       .  S
C2632      C2633   1.408       .  A
C2633      C2634   1.404       .  A
C2633      N2638   1.438       .  S
C2634      H2639   1.084       .  S
N2635      H2655   1.046       .  S
N2635      H2656   1.046       .  S
C2637      C2640   1.402       .  A
C2637      C2644   1.408       .  A
N2638      H2653   1.046       .  S
N2638      H2654   1.045       .  S
C2640      C2641   1.406       .  A
C2640      H2645   1.084       .  S
C2641      C2642   1.412       .  A
C2641      N2646   1.438       .  S
C2642      C2643   1.404       .  A
C2643      C2644   1.405       .  A
C2643      H2647   1.084       .  S
C2644      N2648   1.437       .  S
N2646      H2649   1.046       .  S
N2646      H2650   1.046       .  S
N2648      H2651   1.045       .  S
N2648      H2652   1.046       .  S
C2657      C2658   1.413       .  A
C2657      C2662   1.407       .  A
C2658      C2659   1.402       .  A
C2658      N2663   1.433       .  S
C2659      C2660   1.402       .  A
C2659      H2664   1.084       .  S
C2660      C2665   1.482       .  S
C2660      C2661   1.409       .  A
C2661      C2662   1.405       .  A
C2661      N2666   1.437       .  S
C2662      H2667   1.083       .  S
N2663      H2683   1.045       .  S
N2663      H2684   1.046       .  S
C2665      C2668   1.402       .  A
C2665      C2672   1.408       .  A
N2666      H2681   1.046       .  S
N2666      H2682   1.046       .  S
C2668      C2669   1.406       .  A
C2668      H2673   1.084       .  S
C2669      C2670   1.416       .  A
C2669      N2674   1.437       .  S
C2670      C2671   1.408       .  A
C2671      C2672   1.402       .  A
C2671      H2675   1.084       .  S
C2672      N2676   1.438       .  S
N2674      H2677   1.046       .  S
N2674      H2678   1.045       .  S
N2676      H2679   1.046       .  S
N2676      H2680   1.046       .  S
C2685      C2686   1.416       .  A
C2685      C2690   1.405       .  A
C2686      C2687   1.401       .  A
C2686      N2691   1.439       .  S
C2687      C2688   1.398       .  A
C2687      H2692   1.084       .  S
C2688      C2693   1.481       .  S
C2688      C2689   1.411       .  A
C2689      C2690   1.411       .  A
C2689      N2694   1.437       .  S
C2690      H2695   1.083       .  S
N2691      H2711   1.046       .  S
N2691      H2712   1.046       .  S
C2693      C2696   1.398       .  A
C2693      C2700   1.410       .  A
N2694      H2709   1.045       .  S
N2694      H2710   1.046       .  S
C2696      C2697   1.405       .  A
C2696      H2701   1.084       .  S
C2697      C2698   1.419       .  A
C2697      N2702   1.438       .  S
C2698      C2699   1.404       .  A
C2699      C2700   1.406       .  A
C2699      H2703   1.084       .  S
C2700      N2704   1.438       .  S
N2702      H2705   1.046       .  S
N2702      H2706   1.046       .  S
N2704      H2707   1.046       .  S
N2704      H2708   1.046       .  S
C2713      C2714   1.418       .  A
C2713      C2718   1.407       .  A
C2714      C2715   1.408       .  A
C2714      N2719   1.437       .  S
C2715      C2716   1.401       .  A
C2715      H2720   1.084       .  S
C2716      C2721   1.484       .  S
C2716      C2717   1.409       .  A
C2717      C2718   1.405       .  A
C2717      N2722   1.438       .  S
C2718      H2723   1.084       .  S
N2719      H2739   1.046       .  S
N2719      H2740   1.046       .  S
C2721      C2724   1.401       .  A
C2721      C2728   1.409       .  A
N2722      H2737   1.046       .  S
N2722      H2738   1.046       .  S
C2724      C2725   1.405       .  A
C2724      H2729   1.084       .  S
C2725      C2726   1.416       .  A
C2725      N2730   1.438       .  S
C2726      C2727   1.409       .  A
C2727      C2728   1.407       .  A
C2727      H2731   1.083       .  S
C2728      N2732   1.438       .  S
N2730      H2733   1.046       .  S
N2730      H2734   1.046       .  S
N2732      H2735   1.046       .  S
N2732      H2736   1.045       .  S
C2741      C2742   1.414       .  A
C2741      C2746   1.407       .  A
C2742      C2743   1.406       .  A
C2742      N2747   1.438       .  S
C2743      C2744   1.401       .  A
C2743      H2748   1.084       .  S
C2744      C2749   1.480       .  S
C2744      C2745   1.407       .  A
C2745      C2746   1.407       .  A
C2745      N2750   1.437       .  S
C2746      H2751   1.084       .  S
N2747      H2767   1.046       .  S
N2747      H2768   1.046       .  S
C2749      C2752   1.400       .  A
C2749      C2756   1.409       .  A
N2750      H2765   1.046       .  S
N2750      H2766   1.045       .  S
C2752      C2753   1.406       .  A
C2752      H2757   1.084       .  S
C2753      C2754   1.414       .  A
C2753      N2758   1.438       .  S
C2754      C2755   1.403       .  A
C2755      C2756   1.407       .  A
C2755      H2759   1.084       .  S
C2756      N2760   1.437       .  S
N2758      H2761   1.046       .  S
N2758      H2762   1.046       .  S
N2760      H2763   1.045       .  S
N2760      H2764   1.046       .  S
C2769      C2770   1.412       .  A
C2769      C2774   1.404       .  A
C2770      C2771   1.399       .  A
C2770      N2775   1.433       .  S
C2771      C2772   1.398       .  A
C2771      H2776   1.084       .  S
C2772      C2777   1.482   1_554  S
C2772      C2773   1.413       .  A
C2773      C2774   1.414       .  A
C2773      N2778   1.437       .  S
C2774      H2779   1.083       .  S
N2775      H2795   1.045       .  S
N2775      H2796   1.046       .  S
C2777      C2780   1.401       .  A
C2777      C2784   1.408       .  A
N2778      H2793   1.046       .  S
N2778      H2794   1.045       .  S
C2780      C2781   1.409       .  A
C2780      H2785   1.084       .  S
C2781      C2782   1.417       .  A
C2781      N2786   1.437       .  S
C2782      C2783   1.405       .  A
C2783      C2784   1.406       .  A
C2783      H2787   1.084       .  S
C2784      N2788   1.437       .  S
N2786      H2789   1.046       .  S
N2786      H2790   1.045       .  S
N2788      H2791   1.046       .  S
N2788      H2792   1.045       .  S
C2797      C2798   1.419       .  A
C2797      C2802   1.409       .  A
C2798      C2799   1.411       .  A
C2798      N2803   1.438   1_655  S
C2799      C2800   1.404       .  A
C2799      H2804   1.084   1_655  S
C2800      C2805   1.492       .  S
C2800      C2801   1.410       .  A
C2801      C2802   1.406       .  A
C2801      N2806   1.438       .  S
C2802      H2807   1.083       .  S
N2803      H2823   1.046       .  S
N2803      H2824   1.045       .  S
C2805      C2808   1.403       .  A
C2805      C2812   1.411       .  A
N2806      H2821   1.046       .  S
N2806      H2822   1.046       .  S
C2808      C2809   1.407       .  A
C2808      H2813   1.084       .  S
C2809      C2810   1.417       .  A
C2809      N2814   1.438       .  S
C2810      C2811   1.407       .  A
C2811      C2812   1.410       .  A
C2811      H2815   1.083       .  S
C2812      N2816   1.437       .  S
N2814      H2817   1.046       .  S
N2814      H2818   1.046       .  S
N2816      H2819   1.046       .  S
N2816      H2820   1.046       .  S
C2825      C2826   1.417       .  A
C2825      C2830   1.407       .  A
C2826      C2827   1.410       .  A
C2826      N2831   1.438       .  S
C2827      C2828   1.402       .  A
C2827      H2832   1.084       .  S
C2828      C2833   1.490       .  S
C2828      C2829   1.411       .  A
C2829      C2830   1.411       .  A
C2829      N2834   1.439       .  S
C2830      H2835   1.084       .  S
N2831      H2851   1.046       .  S
N2831      H2852   1.046       .  S
C2833      C2836   1.407       .  A
C2833      C2840   1.409       .  A
N2834      H2849   1.046       .  S
N2834      H2850   1.044       .  S
C2836      C2837   1.415       .  A
C2836      H2841   1.083       .  S
C2837      C2838   1.411       .  A
C2837      N2842   1.436       .  S
C2838      C2839   1.407       .  A
C2839      C2840   1.405       .  A
C2839      H2843   1.084       .  S
C2840      N2844   1.439       .  S
N2842      H2845   1.045       .  S
N2842      H2846   1.046       .  S
N2844      H2847   1.046       .  S
N2844      H2848   1.044       .  S
C2853      C2854   1.416       .  A
C2853      C2858   1.411       .  A
C2854      C2855   1.405       .  A
C2854      N2859   1.438       .  S
C2855      C2856   1.402       .  A
C2855      H2860   1.084       .  S
C2856      C2861   1.476       .  S
C2856      C2857   1.403       .  A
C2857      C2858   1.401       .  A
C2857      N2862   1.438       .  S
C2858      H2863   1.083   1_455  S
N2859      H2879   1.045       .  S
N2859      H2880   1.046       .  S
C2861      C2864   1.404       .  A
C2861      C2868   1.406       .  A
N2862      H2877   1.046       .  S
N2862      H2878   1.046       .  S
C2864      C2865   1.407       .  A
C2864      H2869   1.084       .  S
C2865      C2866   1.410       .  A
C2865      N2870   1.437       .  S
C2866      C2867   1.403       .  A
C2867      C2868   1.400       .  A
C2867      H2871   1.084       .  S
C2868      N2872   1.438       .  S
N2870      H2873   1.046       .  S
N2870      H2874   1.045       .  S
N2872      H2875   1.045       .  S
N2872      H2876   1.046       .  S
C2881      C2882   1.421       .  A
C2881      C2886   1.410       .  A
C2882      C2883   1.409       .  A
C2882      N2887   1.438       .  S
C2883      C2884   1.401       .  A
C2883      H2888   1.084       .  S
C2884      C2889   1.486       .  S
C2884      C2885   1.408       .  A
C2885      C2886   1.405       .  A
C2885      N2890   1.439       .  S
C2886      H2891   1.083       .  S
N2887      H2907   1.046       .  S
N2887      H2908   1.046       .  S
C2889      C2892   1.402       .  A
C2889      C2896   1.410       .  A
N2890      H2905   1.045       .  S
N2890      H2906   1.046       .  S
C2892      C2893   1.404       .  A
C2892      H2897   1.084       .  S
C2893      C2894   1.414       .  A
C2893      N2898   1.438       .  S
C2894      C2895   1.406       .  A
C2895      C2896   1.407       .  A
C2895      H2899   1.084       .  S
C2896      N2900   1.437       .  S
N2898      H2901   1.046       .  S
N2898      H2902   1.046       .  S
N2900      H2903   1.046       .  S
N2900      H2904   1.046       .  S
C2909      C2910   1.417       .  A
C2909      C2914   1.407       .  A
C2910      C2911   1.408       .  A
C2910      N2915   1.439       .  S
C2911      C2912   1.403       .  A
C2911      H2916   1.084       .  S
C2912      C2917   1.492       .  S
C2912      C2913   1.411       .  A
C2913      C2914   1.409       .  A
C2913      N2918   1.438       .  S
C2914      H2919   1.084       .  S
N2915      H2935   1.046       .  S
N2915      H2936   1.046       .  S
C2917      C2920   1.404       .  A
C2917      C2924   1.409       .  A
N2918      H2933   1.045       .  S
N2918      H2934   1.046       .  S
C2920      C2921   1.410       .  A
C2920      H2925   1.084   1_545  S
C2921      C2922   1.417       .  A
C2921      N2926   1.438   1_545  S
C2922      C2923   1.410       .  A
C2923      C2924   1.406       .  A
C2923      H2927   1.083       .  S
C2924      N2928   1.438       .  S
N2926      H2929   1.046       .  S
N2926      H2930   1.046       .  S
N2928      H2931   1.046       .  S
N2928      H2932   1.046       .  S
C2937      C2938   1.409       .  A
C2937      C2942   1.405       .  A
C2938      C2939   1.409       .  A
C2938      N2943   1.437       .  S
C2939      C2940   1.408       .  A
C2939      H2944   1.083       .  S
C2940      C2945   1.492       .  S
C2940      C2941   1.411       .  A
C2941      C2942   1.403       .  A
C2941      N2946   1.438       .  S
C2942      H2947   1.084       .  S
N2943      H2963   1.045       .  S
N2943      H2964   1.046       .  S
C2945      C2948   1.403       .  A
C2945      C2952   1.410       .  A
N2946      H2961   1.046       .  S
N2946      H2962   1.046       .  S
C2948      C2949   1.404       .  A
C2948      H2953   1.084       .  S
C2949      C2950   1.415       .  A
C2949      N2954   1.432       .  S
C2950      C2951   1.411       .  A
C2951      C2952   1.407       .  A
C2951      H2955   1.083       .  S
C2952      N2956   1.438       .  S
N2954      H2957   1.046       .  S
N2954      H2958   1.046       .  S
N2956      H2959   1.046       .  S
N2956      H2960   1.046       .  S
C2965      C2966   1.410       .  A
C2965      C2970   1.402       .  A
C2966      C2967   1.404       .  A
C2966      N2971   1.438       .  S
C2967      C2968   1.405       .  A
C2967      H2972   1.084       .  S
C2968      C2973   1.490       .  S
C2968      C2969   1.415       .  A
C2969      C2970   1.406       .  A
C2969      N2974   1.438       .  S
C2970      H2975   1.084       .  S
N2971      H2991   1.046       .  S
N2971      H2992   1.045       .  S
C2973      C2976   1.401       .  A
C2973      C2980   1.413       .  A
N2974      H2989   1.046       .  S
N2974      H2990   1.046       .  S
C2976      C2977   1.405       .  A
C2976      H2981   1.083       .  S
C2977      C2978   1.419       .  A
C2977      N2982   1.437       .  S
C2978      C2979   1.408       .  A
C2979      C2980   1.408       .  A
C2979      H2983   1.083       .  S
C2980      N2984   1.438       .  S
N2982      H2985   1.046       .  S
N2982      H2986   1.046       .  S
N2984      H2987   1.046       .  S
N2984      H2988   1.046       .  S
C2993      C2994   1.415       .  A
C2993      C2998   1.406       .  A
C2994      C2995   1.411   1_655  A
C2994      N2999   1.437       .  S
C2995      C2996   1.402       .  A
C2995      H3000   1.084       .  S
C2996      C3001   1.481       .  S
C2996      C2997   1.407       .  A
C2997      C2998   1.404   1_455  A
C2997      N3002   1.438       .  S
C2998      H3003   1.084       .  S
N2999      H3019   1.046       .  S
N2999      H3020   1.046       .  S
C3001      C3004   1.399       .  A
C3001      C3008   1.410       .  A
N3002      H3017   1.045       .  S
N3002      H3018   1.046       .  S
C3004      C3005   1.398       .  A
C3004      H3009   1.084       .  S
C3005      C3006   1.419       .  A
C3005      N3010   1.433       .  S
C3006      C3007   1.405       .  A
C3007      C3008   1.409       .  A
C3007      H3011   1.084       .  S
C3008      N3012   1.437       .  S
N3010      H3013   1.044       .  S
N3010      H3014   1.045       .  S
N3012      H3015   1.046       .  S
N3012      H3016   1.045       .  S
C3021      C3022   1.414       .  A
C3021      C3026   1.406   1_545  A
C3022      C3023   1.410   1_545  A
C3022      N3027   1.438       .  S
C3023      C3024   1.403       .  A
C3023      H3028   1.084       .  S
C3024      C3029   1.483       .  S
C3024      C3025   1.408       .  A
C3025      C3026   1.406       .  A
C3025      N3030   1.438       .  S
C3026      H3031   1.084       .  S
N3027      H3047   1.046       .  S
N3027      H3048   1.046       .  S
C3029      C3032   1.399       .  A
C3029      C3036   1.409       .  A
N3030      H3045   1.046       .  S
N3030      H3046   1.045       .  S
C3032      C3033   1.407       .  A
C3032      H3037   1.084       .  S
C3033      C3034   1.418       .  A
C3033      N3038   1.438       .  S
C3034      C3035   1.407       .  A
C3035      C3036   1.408       .  A
C3035      H3039   1.084       .  S
C3036      N3040   1.438       .  S
N3038      H3041   1.046       .  S
N3038      H3042   1.046       .  S
N3040      H3043   1.046       .  S
N3040      H3044   1.045       .  S
C3049      C3050   1.419       .  A
C3049      C3054   1.408       .  A
C3050      C3051   1.407       .  A
C3050      N3055   1.437       .  S
C3051      C3052   1.401       .  A
C3051      H3056   1.084       .  S
C3052      C3057   1.480       .  S
C3052      C3053   1.406       .  A
C3053      C3054   1.402       .  A
C3053      N3058   1.438       .  S
C3054      H3059   1.083       .  S
N3055      H3075   1.045       .  S
N3055      H3076   1.046       .  S
C3057      C3060   1.403       .  A
C3057      C3064   1.406       .  A
N3058      H3073   1.046       .  S
N3058      H3074   1.046       .  S
C3060      C3061   1.406       .  A
C3060      H3065   1.084       .  S
C3061      C3062   1.414       .  A
C3061      N3066   1.438       .  S
C3062      C3063   1.409       .  A
C3063      C3064   1.403       .  A
C3063      H3067   1.084       .  S
C3064      N3068   1.438       .  S
N3066      H3069   1.046       .  S
N3066      H3070   1.045       .  S
N3068      H3071   1.046       .  S
N3068      H3072   1.046       .  S
C3077      C3078   1.415   1_655  A
C3077      C3082   1.406   1_655  A
C3078      C3079   1.395       .  A
C3078      N3083   1.433   1_455  S
C3079      C3080   1.396       .  A
C3079      H3084   1.084       .  S
C3080      C3085   1.479       .  S
C3080      C3081   1.412       .  A
C3081      C3082   1.411       .  A
C3081      N3086   1.437       .  S
C3082      H3087   1.083   1_455  S
N3083      H3103   1.046   1_655  S
N3083      H3104   1.046       .  S
C3085      C3088   1.400       .  A
C3085      C3092   1.412       .  A
N3086      H3101   1.046       .  S
N3086      H3102   1.046       .  S
C3088      C3089   1.403       .  A
C3088      H3093   1.084       .  S
C3089      C3090   1.415       .  A
C3089      N3094   1.439   1_565  S
C3090      C3091   1.402       .  A
C3091      C3092   1.405       .  A
C3091      H3095   1.084       .  S
C3092      N3096   1.438       .  S
N3094      H3097   1.046       .  S
N3094      H3098   1.046       .  S
N3096      H3099   1.046       .  S
N3096      H3100   1.046       .  S
C3105      C3106   1.415       .  A
C3105      C3110   1.405       .  A
C3106      C3107   1.404       .  A
C3106      N3111   1.438       .  S
C3107      C3108   1.401       .  A
C3107      H3112   1.084       .  S
C3108      C3113   1.480       .  S
C3108      C3109   1.409       .  A
C3109      C3110   1.404       .  A
C3109      N3114   1.438       .  S
C3110      H3115   1.084       .  S
N3111      H3131   1.046       .  S
N3111      H3132   1.046       .  S
C3113      C3116   1.398       .  A
C3113      C3120   1.408       .  A
N3114      H3129   1.046       .  S
N3114      H3130   1.045       .  S
C3116      C3117   1.403       .  A
C3116      H3121   1.084       .  S
C3117      C3118   1.421       .  A
C3117      N3122   1.439       .  S
C3118      C3119   1.408       .  A
C3119      C3120   1.405       .  A
C3119      H3123   1.083       .  S
C3120      N3124   1.438       .  S
N3122      H3125   1.046       .  S
N3122      H3126   1.046       .  S
N3124      H3127   1.046       .  S
N3124      H3128   1.046       .  S
C3133      C3134   1.417       .  A
C3133      C3138   1.405       .  A
C3134      C3135   1.404       .  A
C3134      N3139   1.439       .  S
C3135      C3136   1.400       .  A
C3135      H3140   1.084       .  S
C3136      C3141   1.483       .  S
C3136      C3137   1.410       .  A
C3137      C3138   1.409       .  A
C3137      N3142   1.437       .  S
C3138      H3143   1.084       .  S
N3139      H3159   1.045       .  S
N3139      H3160   1.046       .  S
C3141      C3144   1.402       .  A
C3141      C3148   1.407       .  A
N3142      H3157   1.045       .  S
N3142      H3158   1.046       .  S
C3144      C3145   1.409       .  A
C3144      H3149   1.084       .  S
C3145      C3146   1.418       .  A
C3145      N3150   1.438       .  S
C3146      C3147   1.410       .  A
C3147      C3148   1.403       .  A
C3147      H3151   1.083       .  S
C3148      N3152   1.438       .  S
N3150      H3153   1.046       .  S
N3150      H3154   1.046       .  S
N3152      H3155   1.046       .  S
N3152      H3156   1.046       .  S
C3161      C3162   1.412   1_655  A
C3161      C3166   1.407       .  A
C3162      C3163   1.403       .  A
C3162      N3167   1.438       .  S
C3163      C3164   1.400       .  A
C3163      H3168   1.084       .  S
C3164      C3169   1.472       .  S
C3164      C3165   1.406       .  A
C3165      C3166   1.403   1_455  A
C3165      N3170   1.438       .  S
C3166      H3171   1.084       .  S
N3167      H3187   1.046       .  S
N3167      H3188   1.046       .  S
C3169      C3172   1.401       .  A
C3169      C3176   1.406       .  A
N3170      H3185   1.046   1_455  S
N3170      H3186   1.046       .  S
C3172      C3173   1.400   1_565  A
C3172      H3177   1.084       .  S
C3173      C3174   1.418       .  A
C3173      N3178   1.439       .  S
C3174      C3175   1.403   1_545  A
C3175      C3176   1.400       .  A
C3175      H3179   1.084   1_565  S
C3176      N3180   1.438       .  S
N3178      H3181   1.046       .  S
N3178      H3182   1.042       .  S
N3180      H3183   1.046       .  S
N3180      H3184   1.046       .  S
C3189      C3190   1.417       .  A
C3189      C3194   1.410       .  A
C3190      C3191   1.406       .  A
C3190      N3195   1.438       .  S
C3191      C3192   1.404       .  A
C3191      H3196   1.084       .  S
C3192      C3197   1.494       .  S
C3192      C3193   1.411       .  A
C3193      C3194   1.409       .  A
C3193      N3198   1.438       .  S
C3194      H3199   1.084       .  S
N3195      H3215   1.045       .  S
N3195      H3216   1.046       .  S
C3197      C3200   1.407       .  A
C3197      C3204   1.415       .  A
N3198      H3213   1.046       .  S
N3198      H3214   1.045       .  S
C3200      C3201   1.410       .  A
C3200      H3205   1.083       .  S
C3201      C3202   1.411       .  A
C3201      N3206   1.438       .  S
C3202      C3203   1.401       .  A
C3203      C3204   1.405       .  A
C3203      H3207   1.084       .  S
C3204      N3208   1.438       .  S
N3206      H3209   1.046       .  S
N3206      H3210   1.045       .  S
N3208      H3211   1.046       .  S
N3208      H3212   1.045       .  S
C3217      C3218   1.413       .  A
C3217      C3222   1.406       .  A
C3218      C3219   1.404       .  A
C3218      N3223   1.438       .  S
C3219      C3220   1.402       .  A
C3219      H3224   1.084       .  S
C3220      C3225   1.483       .  S
C3220      C3221   1.410       .  A
C3221      C3222   1.407       .  A
C3221      N3226   1.438       .  S
C3222      H3227   1.084       .  S
N3223      H3243   1.046       .  S
N3223      H3244   1.046       .  S
C3225      C3228   1.404       .  A
C3225      C3232   1.408       .  A
N3226      H3241   1.046       .  S
N3226      H3242   1.046       .  S
C3228      C3229   1.410       .  A
C3228      H3233   1.084       .  S
C3229      C3230   1.413       .  A
C3229      N3234   1.438       .  S
C3230      C3231   1.404       .  A
C3231      C3232   1.401       .  A
C3231      H3235   1.084       .  S
C3232      N3236   1.438       .  S
N3234      H3237   1.046       .  S
N3234      H3238   1.046       .  S
N3236      H3239   1.046       .  S
N3236      H3240   1.046       .  S
C3245      C3246   1.415       .  A
C3245      C3250   1.404       .  A
C3246      C3247   1.402       .  A
C3246      N3251   1.438       .  S
C3247      C3248   1.399       .  A
C3247      H3252   1.084       .  S
C3248      C3253   1.480       .  S
C3248      C3249   1.411       .  A
C3249      C3250   1.407       .  A
C3249      N3254   1.438       .  S
C3250      H3255   1.083       .  S
N3251      H3271   1.046       .  S
N3251      H3272   1.046       .  S
C3253      C3256   1.398       .  A
C3253      C3260   1.409       .  A
N3254      H3269   1.046       .  S
N3254      H3270   1.046       .  S
C3256      C3257   1.404       .  A
C3256      H3261   1.084       .  S
C3257      C3258   1.418       .  A
C3257      N3262   1.437       .  S
C3258      C3259   1.409       .  A
C3259      C3260   1.405       .  A
C3259      H3263   1.083       .  S
C3260      N3264   1.438       .  S
N3262      H3265   1.046       .  S
N3262      H3266   1.046       .  S
N3264      H3267   1.046       .  S
N3264      H3268   1.046       .  S
C3273      C3274   1.415       .  A
C3273      C3278   1.408       .  A
C3274      C3275   1.410       .  A
C3274      N3279   1.437       .  S
C3275      C3276   1.404       .  A
C3275      H3280   1.084       .  S
C3276      C3281   1.490       .  S
C3276      C3277   1.410       .  A
C3277      C3278   1.406       .  A
C3277      N3282   1.439       .  S
C3278      H3283   1.084       .  S
N3279      H3299   1.046       .  S
N3279      H3300   1.046       .  S
C3281      C3284   1.400       .  A
C3281      C3288   1.412       .  A
N3282      H3297   1.045       .  S
N3282      H3298   1.046       .  S
C3284      C3285   1.400       .  A
C3284      H3289   1.084       .  S
C3285      C3286   1.414       .  A
C3285      N3290   1.432       .  S
C3286      C3287   1.408       .  A
C3287      C3288   1.411       .  A
C3287      H3291   1.083       .  S
C3288      N3292   1.437       .  S
N3290      H3293   1.046       .  S
N3290      H3294   1.046       .  S
N3292      H3295   1.046       .  S
N3292      H3296   1.045       .  S
C3301      C3302   1.415       .  A
C3301      C3306   1.406       .  A
C3302      C3303   1.403       .  A
C3302      N3307   1.437       .  S
C3303      C3304   1.400       .  A
C3303      H3308   1.084       .  S
C3304      C3309   1.483   1_565  S
C3304      C3305   1.411       .  A
C3305      C3306   1.409       .  A
C3305      N3310   1.438   1_565  S
C3306      H3311   1.084       .  S
N3307      H3327   1.045       .  S
N3307      H3328   1.046       .  S
C3309      C3312   1.401       .  A
C3309      C3316   1.410       .  A
N3310      H3325   1.046       .  S
N3310      H3326   1.046       .  S
C3312      C3313   1.406       .  A
C3312      H3317   1.084   1_545  S
C3313      C3314   1.417       .  A
C3313      N3318   1.438       .  S
C3314      C3315   1.405       .  A
C3315      C3316   1.403       .  A
C3315      H3319   1.084       .  S
C3316      N3320   1.438       .  S
N3318      H3321   1.046   1_545  S
N3318      H3322   1.045       .  S
N3320      H3323   1.046       .  S
N3320      H3324   1.045       .  S
C3329      C3330   1.410       .  A
C3329      C3334   1.404       .  A
C3330      C3331   1.409       .  A
C3330      N3335   1.437       .  S
C3331      C3332   1.407       .  A
C3331      H3336   1.083       .  S
C3332      C3337   1.490       .  S
C3332      C3333   1.412       .  A
C3333      C3334   1.402       .  A
C3333      N3338   1.438       .  S
C3334      H3339   1.084       .  S
N3335      H3355   1.046       .  S
N3335      H3356   1.046       .  S
C3337      C3340   1.401       .  A
C3337      C3344   1.410       .  A
N3338      H3353   1.046       .  S
N3338      H3354   1.046       .  S
C3340      C3341   1.404       .  A
C3340      H3345   1.084       .  S
C3341      C3342   1.419       .  A
C3341      N3346   1.436       .  S
C3342      C3343   1.411       .  A
C3343      C3344   1.407       .  A
C3343      H3347   1.083       .  S
C3344      N3348   1.438       .  S
N3346      H3349   1.046       .  S
N3346      H3350   1.045       .  S
N3348      H3351   1.046       .  S
N3348      H3352   1.045       .  S
C3357      C3358   1.414   1_455  A
C3357      C3362   1.405       .  A
C3358      C3359   1.403       .  A
C3358      N3363   1.438       .  S
C3359      C3360   1.398       .  A
C3359      H3364   1.084       .  S
C3360      C3365   1.480       .  S
C3360      C3361   1.410       .  A
C3361      C3362   1.410   1_655  A
C3361      N3366   1.437       .  S
C3362      H3367   1.084       .  S
N3363      H3383   1.046       .  S
N3363      H3384   1.046       .  S
C3365      C3368   1.402       .  A
C3365      C3372   1.407       .  A
N3366      H3381   1.046   1_655  S
N3366      H3382   1.045       .  S
C3368      C3369   1.408       .  A
C3368      H3373   1.084       .  S
C3369      C3370   1.413       .  A
C3369      N3374   1.438       .  S
C3370      C3371   1.407       .  A
C3371      C3372   1.406       .  A
C3371      H3375   1.084       .  S
C3372      N3376   1.438       .  S
N3374      H3377   1.045       .  S
N3374      H3378   1.046       .  S
N3376      H3379   1.046       .  S
N3376      H3380   1.045       .  S
C3385      C3386   1.418       .  A
C3385      C3390   1.406       .  A
C3386      C3387   1.406       .  A
C3386      N3391   1.438       .  S
C3387      C3388   1.399       .  A
C3387      H3392   1.084       .  S
C3388      C3393   1.480       .  S
C3388      C3389   1.409       .  A
C3389      C3390   1.407       .  A
C3389      N3394   1.438       .  S
C3390      H3395   1.083       .  S
N3391      H3411   1.046       .  S
N3391      H3412   1.046       .  S
C3393      C3396   1.400       .  A
C3393      C3400   1.409       .  A
N3394      H3409   1.045       .  S
N3394      H3410   1.046       .  S
C3396      C3397   1.404       .  A
C3396      H3401   1.084       .  S
C3397      C3398   1.415       .  A
C3397      N3402   1.438       .  S
C3398      C3399   1.406       .  A
C3399      C3400   1.405       .  A
C3399      H3403   1.084       .  S
C3400      N3404   1.438       .  S
N3402      H3405   1.045       .  S
N3402      H3406   1.046       .  S
N3404      H3407   1.046       .  S
N3404      H3408   1.045       .  S
C3413      C3414   1.411       .  A
C3413      C3418   1.403       .  A
C3414      C3415   1.406       .  A
C3414      N3419   1.438       .  S
C3415      C3416   1.404       .  A
C3415      H3420   1.084       .  S
C3416      C3421   1.493       .  S
C3416      C3417   1.414       .  A
C3417      C3418   1.410       .  A
C3417      N3422   1.438       .  S
C3418      H3423   1.084       .  S
N3419      H3439   1.046       .  S
N3419      H3440   1.046       .  S
C3421      C3424   1.402       .  A
C3421      C3428   1.412       .  A
N3422      H3437   1.046       .  S
N3422      H3438   1.046       .  S
C3424      C3425   1.409       .  A
C3424      H3429   1.084       .  S
C3425      C3426   1.422       .  A
C3425      N3430   1.437       .  S
C3426      C3427   1.407       .  A
C3427      C3428   1.406       .  A
C3427      H3431   1.083       .  S
C3428      N3432   1.438       .  S
N3430      H3433   1.046       .  S
N3430      H3434   1.045       .  S
N3432      H3435   1.046       .  S
N3432      H3436   1.045       .  S
C3441      C3442   1.411       .  A
C3441      C3446   1.405       .  A
C3442      C3443   1.404       .  A
C3442      N3447   1.438       .  S
C3443      C3444   1.401       .  A
C3443      H3448   1.084       .  S
C3444      C3449   1.483       .  S
C3444      C3445   1.410       .  A
C3445      C3446   1.410       .  A
C3445      N3450   1.437       .  S
C3446      H3451   1.084       .  S
N3447      H3467   1.046       .  S
N3447      H3468   1.045       .  S
C3449      C3452   1.401       .  A
C3449      C3456   1.408       .  A
N3450      H3465   1.046       .  S
N3450      H3466   1.046       .  S
C3452      C3453   1.408       .  A
C3452      H3457   1.084       .  S
C3453      C3454   1.416       .  A
C3453      N3458   1.438       .  S
C3454      C3455   1.409       .  A
C3455      C3456   1.408       .  A
C3455      H3459   1.084   1_655  S
C3456      N3460   1.438       .  S
N3458      H3461   1.046       .  S
N3458      H3462   1.046       .  S
N3460      H3463   1.046       .  S
N3460      H3464   1.046       .  S
C3469      C3470   1.412       .  A
C3469      C3474   1.406       .  A
C3470      C3471   1.410       .  A
C3470      N3475   1.437       .  S
C3471      C3472   1.408       .  A
C3471      H3476   1.083       .  S
C3472      C3477   1.496       .  S
C3472      C3473   1.412       .  A
C3473      C3474   1.405       .  A
C3473      N3478   1.438       .  S
C3474      H3479   1.084       .  S
N3475      H3495   1.046       .  S
N3475      H3496   1.046       .  S
C3477      C3480   1.403       .  A
C3477      C3484   1.411       .  A
N3478      H3493   1.046       .  S
N3478      H3494   1.046       .  S
C3480      C3481   1.407       .  A
C3480      H3485   1.083       .  S
C3481      C3482   1.419       .  A
C3481      N3486   1.437       .  S
C3482      C3483   1.410       .  A
C3483      C3484   1.409       .  A
C3483      H3487   1.083       .  S
C3484      N3488   1.437       .  S
N3486      H3489   1.046       .  S
N3486      H3490   1.046       .  S
N3488      H3491   1.045       .  S
N3488      H3492   1.046       .  S
C3497      C3498   1.416       .  A
C3497      C3502   1.409       .  A
C3498      C3499   1.406       .  A
C3498      N3503   1.437       .  S
C3499      C3500   1.403       .  A
C3499      H3504   1.083       .  S
C3500      C3505   1.494   1_655  S
C3500      C3501   1.412       .  A
C3501      C3502   1.409       .  A
C3501      N3506   1.438   1_655  S
C3502      H3507   1.083       .  S
N3503      H3523   1.045       .  S
N3503      H3524   1.046       .  S
C3505      C3508   1.404       .  A
C3505      C3512   1.413       .  A
N3506      H3521   1.046       .  S
N3506      H3522   1.045       .  S
C3508      C3509   1.407       .  A
C3508      H3513   1.083   1_455  S
C3509      C3510   1.414       .  A
C3509      N3514   1.438       .  S
C3510      C3511   1.406       .  A
C3511      C3512   1.408       .  A
C3511      H3515   1.084       .  S
C3512      N3516   1.438       .  S
N3514      H3517   1.046       .  S
N3514      H3518   1.046       .  S
N3516      H3519   1.046       .  S
N3516      H3520   1.046       .  S
C3525      C3526   1.414       .  A
C3525      C3530   1.406   1_565  A
C3526      C3527   1.411   1_565  A
C3526      N3531   1.437       .  S
C3527      C3528   1.404       .  A
C3527      H3532   1.084       .  S
C3528      C3533   1.480       .  S
C3528      C3529   1.406       .  A
C3529      C3530   1.403       .  A
C3529      N3534   1.438       .  S
C3530      H3535   1.084   1_545  S
N3531      H3551   1.045       .  S
N3531      H3552   1.046       .  S
C3533      C3536   1.399       .  A
C3533      C3540   1.410       .  A
N3534      H3549   1.045       .  S
N3534      H3550   1.046       .  S
C3536      C3537   1.405       .  A
C3536      H3541   1.084       .  S
C3537      C3538   1.415       .  A
C3537      N3542   1.438       .  S
C3538      C3539   1.404       .  A
C3539      C3540   1.408       .  A
C3539      H3543   1.084       .  S
C3540      N3544   1.437       .  S
N3542      H3545   1.046       .  S
N3542      H3546   1.046       .  S
N3544      H3547   1.046       .  S
N3544      H3548   1.046       .  S
C3553      C3554   1.414       .  A
C3553      C3558   1.406       .  A
C3554      C3555   1.408       .  A
C3554      N3559   1.438       .  S
C3555      C3556   1.404       .  A
C3555      H3560   1.084       .  S
C3556      C3561   1.485       .  S
C3556      C3557   1.409       .  A
C3557      C3558   1.404       .  A
C3557      N3562   1.438       .  S
C3558      H3563   1.084       .  S
N3559      H3579   1.046       .  S
N3559      H3580   1.046       .  S
C3561      C3564   1.400       .  A
C3561      C3568   1.408       .  A
N3562      H3577   1.046       .  S
N3562      H3578   1.046       .  S
C3564      C3565   1.400       .  A
C3564      H3569   1.084       .  S
C3565      C3566   1.424       .  A
C3565      N3570   1.431       .  S
C3566      C3567   1.411       .  A
C3567      C3568   1.406       .  A
C3567      H3571   1.083       .  S
C3568      N3572   1.438       .  S
N3570      H3573   1.045       .  S
N3570      H3574   1.045       .  S
N3572      H3575   1.046       .  S
N3572      H3576   1.046       .  S
C3581      C3582   1.412   1_565  A
C3581      C3586   1.409       .  A
C3582      C3583   1.408       .  A
C3582      N3587   1.437       .  S
C3583      C3584   1.405       .  A
C3583      H3588   1.084       .  S
C3584      C3589   1.486       .  S
C3584      C3585   1.407       .  A
C3585      C3586   1.406   1_545  A
C3585      N3590   1.438       .  S
C3586      H3591   1.084       .  S
N3587      H3607   1.046       .  S
N3587      H3608   1.045       .  S
C3589      C3592   1.406       .  A
C3589      C3596   1.406       .  A
N3590      H3605   1.046   1_545  S
N3590      H3606   1.046       .  S
C3592      C3593   1.413       .  A
C3592      H3597   1.083       .  S
C3593      C3594   1.413       .  A
C3593      N3598   1.437       .  S
C3594      C3595   1.408       .  A
C3595      C3596   1.402       .  A
C3595      H3599   1.084       .  S
C3596      N3600   1.438       .  S
N3598      H3601   1.046       .  S
N3598      H3602   1.045       .  S
N3600      H3603   1.046       .  S
N3600      H3604   1.046       .  S
C3609      C3610   1.417       .  A
C3609      C3614   1.404       .  A
C3610      C3611   1.403       .  A
C3610      N3615   1.439       .  S
C3611      C3612   1.398       .  A
C3611      H3616   1.084       .  S
C3612      C3617   1.477       .  S
C3612      C3613   1.409       .  A
C3613      C3614   1.404       .  A
C3613      N3618   1.438       .  S
C3614      H3619   1.084       .  S
N3615      H3635   1.046       .  S
N3615      H3636   1.046       .  S
C3617      C3620   1.398       .  A
C3617      C3624   1.407       .  A
N3618      H3633   1.046       .  S
N3618      H3634   1.046       .  S
C3620      C3621   1.402       .  A
C3620      H3625   1.084       .  S
C3621      C3622   1.419       .  A
C3621      N3626   1.438       .  S
C3622      C3623   1.408       .  A
C3623      C3624   1.406       .  A
C3623      H3627   1.083       .  S
C3624      N3628   1.438       .  S
N3626      H3629   1.046       .  S
N3626      H3630   1.046       .  S
N3628      H3631   1.046       .  S
N3628      H3632   1.046       .  S
C3637      C3638   1.414       .  A
C3637      C3642   1.403   1_455  A
C3638      C3639   1.411   1_455  A
C3638      N3643   1.437       .  S
C3639      C3640   1.404       .  A
C3639      H3644   1.084       .  S
C3640      C3645   1.487       .  S
C3640      C3641   1.410       .  A
C3641      C3642   1.403       .  A
C3641      N3646   1.438       .  S
C3642      H3647   1.084       .  S
N3643      H3663   1.046       .  S
N3643      H3664   1.045       .  S
C3645      C3648   1.400       .  A
C3645      C3652   1.410       .  A
N3646      H3661   1.046       .  S
N3646      H3662   1.045       .  S
C3648      C3649   1.404       .  A
C3648      H3653   1.084       .  S
C3649      C3650   1.419   1_545  A
C3649      N3654   1.439       .  S
C3650      C3651   1.408   1_565  A
C3651      C3652   1.410       .  A
C3651      H3655   1.083   1_545  S
C3652      N3656   1.437       .  S
N3654      H3657   1.046       .  S
N3654      H3658   1.045       .  S
N3656      H3659   1.046       .  S
N3656      H3660   1.045       .  S
C3665      C3666   1.416       .  A
C3665      C3670   1.406       .  A
C3666      C3667   1.403       .  A
C3666      N3671   1.438       .  S
C3667      C3668   1.400       .  A
C3667      H3672   1.084       .  S
C3668      C3673   1.481       .  S
C3668      C3669   1.410       .  A
C3669      C3670   1.407       .  A
C3669      N3674   1.438       .  S
C3670      H3675   1.083       .  S
N3671      H3691   1.046       .  S
N3671      H3692   1.046       .  S
C3673      C3676   1.400       .  A
C3673      C3680   1.408       .  A
N3674      H3689   1.046       .  S
N3674      H3690   1.046       .  S
C3676      C3677   1.407       .  A
C3676      H3681   1.084       .  S
C3677      C3678   1.419       .  A
C3677      N3682   1.438       .  S
C3678      C3679   1.406       .  A
C3679      C3680   1.403       .  A
C3679      H3683   1.083       .  S
C3680      N3684   1.438       .  S
N3682      H3685   1.046       .  S
N3682      H3686   1.046       .  S
N3684      H3687   1.045       .  S
N3684      H3688   1.046       .  S
C3693      C3694   1.415       .  A
C3693      C3698   1.407       .  A
C3694      C3695   1.407       .  A
C3694      N3699   1.437       .  S
C3695      C3696   1.401       .  A
C3695      H3700   1.084       .  S
C3696      C3701   1.474       .  S
C3696      C3697   1.405       .  A
C3697      C3698   1.402       .  A
C3697      N3702   1.438       .  S
C3698      H3703   1.082       .  S
N3699      H3719   1.046       .  S
N3699      H3720   1.046       .  S
C3701      C3704   1.399       .  A
C3701      C3708   1.408       .  A
N3702      H3717   1.045       .  S
N3702      H3718   1.045       .  S
C3704      C3705   1.403   1_545  A
C3704      H3709   1.084       .  S
C3705      C3706   1.413       .  A
C3705      N3710   1.438       .  S
C3706      C3707   1.403       .  A
C3707      C3708   1.404   1_565  A
C3707      H3711   1.084       .  S
C3708      N3712   1.437       .  S
N3710      H3713   1.046       .  S
N3710      H3714   1.045       .  S
N3712      H3715   1.046       .  S
N3712      H3716   1.045       .  S
C3721      C3722   1.415       .  A
C3721      C3726   1.409       .  A
C3722      C3723   1.396       .  A
C3722      N3727   1.433       .  S
C3723      C3724   1.396       .  A
C3723      H3728   1.084       .  S
C3724      C3729   1.476       .  S
C3724      C3725   1.410       .  A
C3725      C3726   1.411       .  A
C3725      N3730   1.438       .  S
C3726      H3731   1.083       .  S
N3727      H3747   1.046       .  S
N3727      H3748   1.046       .  S
C3729      C3732   1.397       .  A
C3729      C3736   1.410       .  A
N3730      H3745   1.046       .  S
N3730      H3746   1.046       .  S
C3732      C3733   1.403       .  A
C3732      H3737   1.084       .  S
C3733      C3734   1.419       .  A
C3733      N3738   1.438       .  S
C3734      C3735   1.404       .  A
C3735      C3736   1.404       .  A
C3735      H3739   1.084       .  S
C3736      N3740   1.438       .  S
N3738      H3741   1.046       .  S
N3738      H3742   1.046       .  S
N3740      H3743   1.046       .  S
N3740      H3744   1.046       .  S
C3749      C3750   1.413       .  A
C3749      C3754   1.408       .  A
C3750      C3751   1.412       .  A
C3750      N3755   1.437       .  S
C3751      C3752   1.404       .  A
C3751      H3756   1.083       .  S
C3752      C3757   1.482       .  S
C3752      C3753   1.407       .  A
C3753      C3754   1.404       .  A
C3753      N3758   1.439       .  S
C3754      H3759   1.084       .  S
N3755      H3775   1.046       .  S
N3755      H3776   1.046       .  S
C3757      C3760   1.403       .  A
C3757      C3764   1.408       .  A
N3758      H3773   1.046       .  S
N3758      H3774   1.045       .  S
C3760      C3761   1.410       .  A
C3760      H3765   1.084       .  S
C3761      C3762   1.413       .  A
C3761      N3766   1.437       .  S
C3762      C3763   1.405       .  A
C3763      C3764   1.405       .  A
C3763      H3767   1.083       .  S
C3764      N3768   1.438       .  S
N3766      H3769   1.046       .  S
N3766      H3770   1.045       .  S
N3768      H3771   1.046       .  S
N3768      H3772   1.045       .  S
C3777      C3778   1.415       .  A
C3777      C3782   1.406       .  A
C3778      C3779   1.406       .  A
C3778      N3783   1.438       .  S
C3779      C3780   1.403       .  A
C3779      H3784   1.084       .  S
C3780      C3785   1.490       .  S
C3780      C3781   1.412       .  A
C3781      C3782   1.409       .  A
C3781      N3786   1.438       .  S
C3782      H3787   1.084       .  S
N3783      H3803   1.046       .  S
N3783      H3804   1.046       .  S
C3785      C3788   1.403       .  A
C3785      C3792   1.411       .  A
N3786      H3801   1.046       .  S
N3786      H3802   1.046       .  S
C3788      C3789   1.408       .  A
C3788      H3793   1.084       .  S
C3789      C3790   1.416       .  A
C3789      N3794   1.438       .  S
C3790      C3791   1.407       .  A
C3791      C3792   1.406       .  A
C3791      H3795   1.084       .  S
C3792      N3796   1.438       .  S
N3794      H3797   1.045       .  S
N3794      H3798   1.046       .  S
N3796      H3799   1.046       .  S
N3796      H3800   1.046       .  S
C3805      C3806   1.416       .  A
C3805      C3810   1.406       .  A
C3806      C3807   1.407       .  A
C3806      N3811   1.438   1_455  S
C3807      C3808   1.402       .  A
C3807      H3812   1.084       .  S
C3808      C3813   1.481       .  S
C3808      C3809   1.407       .  A
C3809      C3810   1.402       .  A
C3809      N3814   1.438       .  S
C3810      H3815   1.084       .  S
N3811      H3831   1.046       .  S
N3811      H3832   1.046       .  S
C3813      C3816   1.400       .  A
C3813      C3820   1.408       .  A
N3814      H3829   1.046       .  S
N3814      H3830   1.046       .  S
C3816      C3817   1.404       .  A
C3816      H3821   1.084       .  S
C3817      C3818   1.419       .  A
C3817      N3822   1.439       .  S
C3818      C3819   1.406       .  A
C3819      C3820   1.406       .  A
C3819      H3823   1.083       .  S
C3820      N3824   1.437       .  S
N3822      H3825   1.046       .  S
N3822      H3826   1.046       .  S
N3824      H3827   1.045       .  S
N3824      H3828   1.046       .  S
C3833      C3834   1.419   1_455  A
C3833      C3838   1.404       .  A
C3834      C3835   1.402       .  A
C3834      N3839   1.438       .  S
C3835      C3836   1.398       .  A
C3835      H3840   1.084       .  S
C3836      C3841   1.484       .  S
C3836      C3837   1.412   1_655  A
C3837      C3838   1.409       .  A
C3837      N3842   1.438       .  S
C3838      H3843   1.083       .  S
N3839      H3859   1.046       .  S
N3839      H3860   1.045       .  S
C3841      C3844   1.401   1_655  A
C3841      C3848   1.411       .  A
N3842      H3857   1.046       .  S
N3842      H3858   1.046       .  S
C3844      C3845   1.406       .  A
C3844      H3849   1.084       .  S
C3845      C3846   1.415   1_455  A
C3845      N3850   1.437       .  S
C3846      C3847   1.407       .  A
C3847      C3848   1.404       .  A
C3847      H3851   1.083       .  S
C3848      N3852   1.439       .  S
N3850      H3853   1.046       .  S
N3850      H3854   1.046       .  S
N3852      H3855   1.046       .  S
N3852      H3856   1.046       .  S
C3861      C3862   1.414       .  A
C3861      C3866   1.409       .  A
C3862      C3863   1.405       .  A
C3862      N3867   1.436       .  S
C3863      C3864   1.400       .  A
C3863      H3868   1.084       .  S
C3864      C3869   1.477       .  S
C3864      C3865   1.406       .  A
C3865      C3866   1.403       .  A
C3865      N3870   1.438       .  S
C3866      H3871   1.084       .  S
N3867      H3887   1.045       .  S
N3867      H3888   1.045       .  S
C3869      C3872   1.402       .  A
C3869      C3876   1.405       .  A
N3870      H3885   1.046       .  S
N3870      H3886   1.046       .  S
C3872      C3873   1.407       .  A
C3872      H3877   1.084       .  S
C3873      C3874   1.416       .  A
C3873      N3878   1.438       .  S
C3874      C3875   1.407       .  A
C3875      C3876   1.401       .  A
C3875      H3879   1.084       .  S
C3876      N3880   1.438       .  S
N3878      H3881   1.046       .  S
N3878      H3882   1.045       .  S
N3880      H3883   1.046       .  S
N3880      H3884   1.046       .  S
C3889      C3890   1.419       .  A
C3889      C3894   1.404       .  A
C3890      C3891   1.404       .  A
C3890      N3895   1.439       .  S
C3891      C3892   1.397       .  A
C3891      H3896   1.084       .  S
C3892      C3897   1.477       .  S
C3892      C3893   1.410       .  A
C3893      C3894   1.407       .  A
C3893      N3898   1.438       .  S
C3894      H3899   1.083       .  S
N3895      H3915   1.046       .  S
N3895      H3916   1.046       .  S
C3897      C3900   1.398       .  A
C3897      C3904   1.411       .  A
N3898      H3913   1.045       .  S
N3898      H3914   1.046       .  S
C3900      C3901   1.396       .  A
C3900      H3905   1.084       .  S
C3901      C3902   1.412       .  A
C3901      N3906   1.433       .  S
C3902      C3903   1.404       .  A
C3903      C3904   1.409       .  A
C3903      H3907   1.084       .  S
C3904      N3908   1.437       .  S
N3906      H3909   1.045       .  S
N3906      H3910   1.046       .  S
N3908      H3911   1.046       .  S
N3908      H3912   1.046       .  S
C3917      C3918   1.416       .  A
C3917      C3922   1.405       .  A
C3918      C3919   1.410       .  A
C3918      N3923   1.438   1_565  S
C3919      C3920   1.405       .  A
C3919      H3924   1.083       .  S
C3920      C3925   1.495       .  S
C3920      C3921   1.413       .  A
C3921      C3922   1.405       .  A
C3921      N3926   1.438       .  S
C3922      H3927   1.084       .  S
N3923      H3943   1.046       .  S
N3923      H3944   1.045       .  S
C3925      C3928   1.400       .  A
C3925      C3932   1.412       .  A
N3926      H3941   1.046       .  S
N3926      H3942   1.045       .  S
C3928      C3929   1.405       .  A
C3928      H3933   1.084       .  S
C3929      C3930   1.422       .  A
C3929      N3934   1.438       .  S
C3930      C3931   1.412       .  A
C3931      C3932   1.413       .  A
C3931      H3935   1.083       .  S
C3932      N3936   1.438       .  S
N3934      H3937   1.046       .  S
N3934      H3938   1.046       .  S
N3936      H3939   1.045       .  S
N3936      H3940   1.046       .  S
C3945      C3946   1.413   1_565  A
C3945      C3950   1.403       .  A
C3946      C3947   1.401       .  A
C3946      N3951   1.432       .  S
C3947      C3948   1.400       .  A
C3947      H3952   1.084       .  S
C3948      C3953   1.488       .  S
C3948      C3949   1.414   1_545  A
C3949      C3950   1.410       .  A
C3949      N3954   1.437       .  S
C3950      H3955   1.084       .  S
N3951      H3971   1.046       .  S
N3951      H3972   1.046       .  S
C3953      C3956   1.402   1_545  A
C3953      C3960   1.411       .  A
N3954      H3969   1.046       .  S
N3954      H3970   1.045       .  S
C3956      C3957   1.407       .  A
C3956      H3961   1.084       .  S
C3957      C3958   1.418   1_565  A
C3957      N3962   1.438       .  S
C3958      C3959   1.407       .  A
C3959      C3960   1.406       .  A
C3959      H3963   1.083       .  S
C3960      N3964   1.438       .  S
N3962      H3965   1.046       .  S
N3962      H3966   1.045       .  S
N3964      H3967   1.046       .  S
N3964      H3968   1.046       .  S
C3973      C3974   1.419       .  A
C3973      C3978   1.411       .  A
C3974      C3975   1.405       .  A
C3974      N3979   1.438       .  S
C3975      C3976   1.402       .  A
C3975      H3980   1.084       .  S
C3976      C3981   1.485       .  S
C3976      C3977   1.406       .  A
C3977      C3978   1.405       .  A
C3977      N3982   1.438       .  S
C3978      H3983   1.083       .  S
N3979      H3999   1.046       .  S
N3979      H4000   1.046       .  S
C3981      C3984   1.405       .  A
C3981      C3988   1.408       .  A
N3982      H3997   1.046       .  S
N3982      H3998   1.046       .  S
C3984      C3985   1.411       .  A
C3984      H3989   1.084       .  S
C3985      C3986   1.414       .  A
C3985      N3990   1.438       .  S
C3986      C3987   1.405       .  A
C3987      C3988   1.400       .  A
C3987      H3991   1.084       .  S
C3988      N3992   1.438       .  S
N3990      H3993   1.046       .  S
N3990      H3994   1.045       .  S
N3992      H3995   1.046       .  S
N3992      H3996   1.045       .  S
C4001      C4002   1.415       .  A
C4001      C4006   1.408       .  A
C4002      C4003   1.407       .  A
C4002      N4007   1.432       .  S
C4003      C4004   1.402       .  A
C4003      H4008   1.084       .  S
C4004      C4009   1.479       .  S
C4004      C4005   1.414       .  A
C4005      C4006   1.400       .  A
C4005      N4010   1.439       .  S
C4006      H4011   1.084       .  S
N4007      H4027   1.046       .  S
N4007      H4028   1.045       .  S
C4009      C4012   1.400       .  A
C4009      C4016   1.410       .  A
N4010      H4025   1.046       .  S
N4010      H4026   1.043       .  S
C4012      C4013   1.397       .  A
C4012      H4017   1.084       .  S
C4013      C4014   1.416       .  A
C4013      N4018   1.434       .  S
C4014      C4015   1.403       .  A
C4015      C4016   1.407       .  A
C4015      H4019   1.084       .  S
C4016      N4020   1.437       .  S
N4018      H4021   1.046       .  S
N4018      H4022   1.044       .  S
N4020      H4023   1.046       .  S
N4020      H4024   1.045       .  S
C4029      C4030   1.413       .  A
C4029      C4034   1.409       .  A
C4030      C4031   1.405       .  A
C4030      N4035   1.438       .  S
C4031      C4032   1.404       .  A
C4031      H4036   1.084       .  S
C4032      C4037   1.479       .  S
C4032      C4033   1.406       .  A
C4033      C4034   1.402       .  A
C4033      N4038   1.438       .  S
C4034      H4039   1.083       .  S
N4035      H4055   1.045       .  S
N4035      H4056   1.046       .  S
C4037      C4040   1.406       .  A
C4037      C4044   1.407       .  A
N4038      H4053   1.046       .  S
N4038      H4054   1.046       .  S
C4040      C4041   1.410       .  A
C4040      H4045   1.084       .  S
C4041      C4042   1.410       .  A
C4041      N4046   1.437       .  S
C4042      C4043   1.404       .  A
C4043      C4044   1.398       .  A
C4043      H4047   1.084       .  S
C4044      N4048   1.439       .  S
N4046      H4049   1.046       .  S
N4046      H4050   1.046       .  S
N4048      H4051   1.045       .  S
N4048      H4052   1.046       .  S
C4057      C4058   1.418       .  A
C4057      C4062   1.409       .  A
C4058      C4059   1.406       .  A
C4058      N4063   1.438       .  S
C4059      C4060   1.401       .  A
C4059      H4064   1.084       .  S
C4060      C4065   1.484       .  S
C4060      C4061   1.408       .  A
C4061      C4062   1.404       .  A
C4061      N4066   1.438       .  S
C4062      H4067   1.084       .  S
N4063      H4083   1.046       .  S
N4063      H4084   1.046       .  S
C4065      C4068   1.403       .  A
C4065      C4072   1.409       .  A
N4066      H4081   1.046       .  S
N4066      H4082   1.046       .  S
C4068      C4069   1.406       .  A
C4068      H4073   1.084       .  S
C4069      C4070   1.413       .  A
C4069      N4074   1.438       .  S
C4070      C4071   1.408       .  A
C4071      C4072   1.404       .  A
C4071      H4075   1.084       .  S
C4072      N4076   1.438       .  S
N4074      H4077   1.046       .  S
N4074      H4078   1.046       .  S
N4076      H4079   1.046       .  S
N4076      H4080   1.045       .  S
C4085      C4086   1.412       .  A
C4085      C4090   1.405       .  A
C4086      C4087   1.410       .  A
C4086      N4091   1.438       .  S
C4087      C4088   1.404       .  A
C4087      H4092   1.084       .  S
C4088      C4093   1.480       .  S
C4088      C4089   1.407       .  A
C4089      C4090   1.403       .  A
C4089      N4094   1.438       .  S
C4090      H4095   1.084       .  S
N4091      H4111   1.045       .  S
N4091      H4112   1.046       .  S
C4093      C4096   1.399       .  A
C4093      C4100   1.410       .  A
N4094      H4109   1.046       .  S
N4094      H4110   1.046       .  S
C4096      C4097   1.402       .  A
C4096      H4101   1.084       .  S
C4097      C4098   1.411       .  A
C4097      N4102   1.432       .  S
C4098      C4099   1.407       .  A
C4099      C4100   1.410       .  A
C4099      H4103   1.084       .  S
C4100      N4104   1.438       .  S
N4102      H4105   1.046       .  S
N4102      H4106   1.046       .  S
N4104      H4107   1.046       .  S
N4104      H4108   1.046       .  S
C4113      C4114   1.413       .  A
C4113      C4118   1.404       .  A
C4114      C4115   1.401       .  A
C4114      N4119   1.439       .  S
C4115      C4116   1.399       .  A
C4115      H4120   1.084       .  S
C4116      C4121   1.475       .  S
C4116      C4117   1.411       .  A
C4117      C4118   1.407       .  A
C4117      N4122   1.438       .  S
C4118      H4123   1.084       .  S
N4119      H4139   1.046       .  S
N4119      H4140   1.046       .  S
C4121      C4124   1.399       .  A
C4121      C4128   1.409       .  A
N4122      H4137   1.046       .  S
N4122      H4138   1.043       .  S
C4124      C4125   1.403       .  A
C4124      H4129   1.084       .  S
C4125      C4126   1.414       .  A
C4125      N4130   1.438       .  S
C4126      C4127   1.405       .  A
C4127      C4128   1.407       .  A
C4127      H4131   1.084       .  S
C4128      N4132   1.438       .  S
N4130      H4133   1.046       .  S
N4130      H4134   1.046       .  S
N4132      H4135   1.046       .  S
N4132      H4136   1.043       .  S
C4141      C4142   1.411       .  A
C4141      C4146   1.403       .  A
C4142      C4143   1.405       .  A
C4142      N4147   1.439       .  S
C4143      C4144   1.403       .  A
C4143      H4148   1.084       .  S
C4144      C4149   1.488       .  S
C4144      C4145   1.413       .  A
C4145      C4146   1.408       .  A
C4145      N4150   1.437       .  S
C4146      H4151   1.084       .  S
N4147      H4167   1.046       .  S
N4147      H4168   1.045       .  S
C4149      C4152   1.401       .  A
C4149      C4156   1.408       .  A
N4150      H4165   1.046       .  S
N4150      H4166   1.046       .  S
C4152      C4153   1.408       .  A
C4152      H4157   1.084       .  S
C4153      C4154   1.422       .  A
C4153      N4158   1.438       .  S
C4154      C4155   1.412       .  A
C4155      C4156   1.407       .  A
C4155      H4159   1.083       .  S
C4156      N4160   1.438       .  S
N4158      H4161   1.046       .  S
N4158      H4162   1.046       .  S
N4160      H4163   1.045       .  S
N4160      H4164   1.046       .  S
C4169      C4170   1.417       .  A
C4169      C4174   1.407       .  A
C4170      C4171   1.403       .  A
C4170      N4175   1.438       .  S
C4171      C4172   1.398       .  A
C4171      H4176   1.084       .  S
C4172      C4177   1.479       .  S
C4172      C4173   1.409       .  A
C4173      C4174   1.409       .  A
C4173      N4178   1.438       .  S
C4174      H4179   1.083       .  S
N4175      H4195   1.046       .  S
N4175      H4196   1.046       .  S
C4177      C4180   1.399       .  A
C4177      C4184   1.409       .  A
N4178      H4193   1.046       .  S
N4178      H4194   1.045       .  S
C4180      C4181   1.404       .  A
C4180      H4185   1.084       .  S
C4181      C4182   1.416       .  A
C4181      N4186   1.432       .  S
C4182      C4183   1.406       .  A
C4183      C4184   1.405       .  A
C4183      H4187   1.084       .  S
C4184      N4188   1.438       .  S
N4186      H4189   1.046       .  S
N4186      H4190   1.046       .  S
N4188      H4191   1.046       .  S
N4188      H4192   1.046       .  S
C4197      C4198   1.413       .  A
C4197      C4202   1.406       .  A
C4198      C4199   1.409       .  A
C4198      N4203   1.436       .  S
C4199      C4200   1.405       .  A
C4199      H4204   1.083       .  S
C4200      C4205   1.488       .  S
C4200      C4201   1.410       .  A
C4201      C4202   1.403       .  A
C4201      N4206   1.438       .  S
C4202      H4207   1.084       .  S
N4203      H4223   1.045       .  S
N4203      H4224   1.046       .  S
C4205      C4208   1.403       .  A
C4205      C4212   1.411       .  A
N4206      H4221   1.046       .  S
N4206      H4222   1.045       .  S
C4208      C4209   1.403       .  A
C4208      H4213   1.084       .  S
C4209      C4210   1.413       .  A
C4209      N4214   1.438       .  S
C4210      C4211   1.405       .  A
C4211      C4212   1.407       .  A
C4211      H4215   1.082       .  S
C4212      N4216   1.437       .  S
N4214      H4217   1.045       .  S
N4214      H4218   1.046       .  S
N4216      H4219   1.046       .  S
N4216      H4220   1.046       .  S
C4225      C4226   1.411       .  A
C4225      C4230   1.403       .  A
C4226      C4227   1.409       .  A
C4226      N4231   1.438       .  S
C4227      C4228   1.406       .  A
C4227      H4232   1.083       .  S
C4228      C4233   1.488       .  S
C4228      C4229   1.410       .  A
C4229      C4230   1.403       .  A
C4229      N4234   1.438       .  S
C4230      H4235   1.084       .  S
N4231      H4251   1.045       .  S
N4231      H4252   1.046       .  S
C4233      C4236   1.406       .  A
C4233      C4240   1.408       .  A
N4234      H4249   1.046       .  S
N4234      H4250   1.046       .  S
C4236      C4237   1.406       .  A
C4236      H4241   1.084       .  S
C4237      C4238   1.415       .  A
C4237      N4242   1.438       .  S
C4238      C4239   1.409       .  A
C4239      C4240   1.401       .  A
C4239      H4243   1.083       .  S
C4240      N4244   1.437       .  S
N4242      H4245   1.046       .  S
N4242      H4246   1.046       .  S
N4244      H4247   1.046       .  S
N4244      H4248   1.045       .  S
C4253      C4254   1.416       .  A
C4253      C4258   1.408       .  A
C4254      C4255   1.398       .  A
C4254      N4259   1.432       .  S
C4255      C4256   1.398       .  A
C4255      H4260   1.084       .  S
C4256      C4261   1.481       .  S
C4256      C4257   1.410       .  A
C4257      C4258   1.408       .  A
C4257      N4262   1.437       .  S
C4258      H4263   1.083       .  S
N4259      H4279   1.046       .  S
N4259      H4280   1.046       .  S
C4261      C4264   1.402       .  A
C4261      C4268   1.409       .  A
N4262      H4277   1.046       .  S
N4262      H4278   1.045       .  S
C4264      C4265   1.404       .  A
C4264      H4269   1.084       .  S
C4265      C4266   1.414       .  A
C4265      N4270   1.438       .  S
C4266      C4267   1.407       .  A
C4267      C4268   1.405       .  A
C4267      H4271   1.082       .  S
C4268      N4272   1.438       .  S
N4270      H4273   1.045       .  S
N4270      H4274   1.046       .  S
N4272      H4275   1.046       .  S
N4272      H4276   1.046       .  S
C4281      C4282   1.417       .  A
C4281      C4286   1.404       .  A
C4282      C4283   1.402       .  A
C4282      N4287   1.438       .  S
C4283      C4284   1.399       .  A
C4283      H4288   1.084       .  S
C4284      C4289   1.486       .  S
C4284      C4285   1.413       .  A
C4285      C4286   1.409       .  A
C4285      N4290   1.438       .  S
C4286      H4291   1.084       .  S
N4287      H4307   1.045       .  S
N4287      H4308   1.046       .  S
C4289      C4292   1.401       .  A
C4289      C4296   1.410       .  A
N4290      H4305   1.045       .  S
N4290      H4306   1.046       .  S
C4292      C4293   1.405       .  A
C4292      H4297   1.084       .  S
C4293      C4294   1.419       .  A
C4293      N4298   1.438       .  S
C4294      C4295   1.409       .  A
C4295      C4296   1.406       .  A
C4295      H4299   1.083       .  S
C4296      N4300   1.438       .  S
N4298      H4301   1.046       .  S
N4298      H4302   1.045       .  S
N4300      H4303   1.046       .  S
N4300      H4304   1.046       .  S
C4309      C4310   1.413       .  A
C4309      C4314   1.404       .  A
C4310      C4311   1.405       .  A
C4310      N4315   1.438       .  S
C4311      C4312   1.403       .  A
C4311      H4316   1.084       .  S
C4312      C4317   1.487       .  S
C4312      C4313   1.411       .  A
C4313      C4314   1.406       .  A
C4313      N4318   1.437   1_455  S
C4314      H4319   1.084       .  S
N4315      H4335   1.046       .  S
N4315      H4336   1.046       .  S
C4317      C4320   1.402       .  A
C4317      C4324   1.409       .  A
N4318      H4333   1.046       .  S
N4318      H4334   1.046       .  S
C4320      C4321   1.407       .  A
C4320      H4325   1.084       .  S
C4321      C4322   1.419       .  A
C4321      N4326   1.438   1_455  S
C4322      C4323   1.409       .  A
C4323      C4324   1.406       .  A
C4323      H4327   1.083       .  S
C4324      N4328   1.438       .  S
N4326      H4329   1.046       .  S
N4326      H4330   1.046       .  S
N4328      H4331   1.046       .  S
N4328      H4332   1.046       .  S
C4337      C4338   1.415       .  A
C4337      C4342   1.410       .  A
C4338      C4339   1.403       .  A
C4338      N4343   1.432       .  S
C4339      C4340   1.402       .  A
C4339      H4344   1.084       .  S
C4340      C4345   1.491       .  S
C4340      C4341   1.411       .  A
C4341      C4342   1.412       .  A
C4341      N4346   1.437       .  S
C4342      H4347   1.083       .  S
N4343      H4363   1.046       .  S
N4343      H4364   1.046       .  S
C4345      C4348   1.406       .  A
C4345      C4352   1.409       .  A
N4346      H4361   1.046       .  S
N4346      H4362   1.046       .  S
C4348      C4349   1.413       .  A
C4348      H4353   1.084       .  S
C4349      C4350   1.416       .  A
C4349      N4354   1.437       .  S
C4350      C4351   1.408       .  A
C4351      C4352   1.405       .  A
C4351      H4355   1.083       .  S
C4352      N4356   1.438       .  S
N4354      H4357   1.046       .  S
N4354      H4358   1.046       .  S
N4356      H4359   1.046       .  S
N4356      H4360   1.046       .  S
C4365      C4366   1.415       .  A
C4365      C4370   1.411       .  A
C4366      C4367   1.406       .  A
C4366      N4371   1.437       .  S
C4367      C4368   1.404       .  A
C4367      H4372   1.084       .  S
C4368      C4373   1.487       .  S
C4368      C4369   1.408       .  A
C4369      C4370   1.405       .  A
C4369      N4374   1.438       .  S
C4370      H4375   1.083       .  S
N4371      H4391   1.046       .  S
N4371      H4392   1.046       .  S
C4373      C4376   1.408       .  A
C4373      C4380   1.409       .  A
N4374      H4389   1.046       .  S
N4374      H4390   1.046       .  S
C4376      C4377   1.410       .  A
C4376      H4381   1.083       .  S
C4377      C4378   1.411       .  A
C4377      N4382   1.438       .  S
C4378      C4379   1.404       .  A
C4379      C4380   1.398       .  A
C4379      H4383   1.084       .  S
C4380      N4384   1.438       .  S
N4382      H4385   1.046       .  S
N4382      H4386   1.046       .  S
N4384      H4387   1.046       .  S
N4384      H4388   1.045       .  S
C4393      C4394   1.417       .  A
C4393      C4398   1.408       .  A
C4394      C4395   1.402   1_455  A
C4394      N4399   1.436       .  S
C4395      C4396   1.398       .  A
C4395      H4400   1.084       .  S
C4396      C4401   1.477       .  S
C4396      C4397   1.408       .  A
C4397      C4398   1.404   1_655  A
C4397      N4402   1.438       .  S
C4398      H4403   1.084       .  S
N4399      H4419   1.045       .  S
N4399      H4420   1.046       .  S
C4401      C4404   1.402       .  A
C4401      C4408   1.408       .  A
N4402      H4417   1.046       .  S
N4402      H4418   1.045       .  S
C4404      C4405   1.401       .  A
C4404      H4409   1.084       .  S
C4405      C4406   1.410       .  A
C4405      N4410   1.432       .  S
C4406      C4407   1.406       .  A
C4407      C4408   1.403       .  A
C4407      H4411   1.084       .  S
C4408      N4412   1.438       .  S
N4410      H4413   1.046       .  S
N4410      H4414   1.046       .  S
N4412      H4415   1.046       .  S
N4412      H4416   1.046       .  S
C4421      C4422   1.414       .  A
C4421      C4426   1.408       .  A
C4422      C4423   1.410       .  A
C4422      N4427   1.437       .  S
C4423      C4424   1.402       .  A
C4423      H4428   1.084       .  S
C4424      C4429   1.486       .  S
C4424      C4425   1.409       .  A
C4425      C4426   1.408       .  A
C4425      N4430   1.438       .  S
C4426      H4431   1.084       .  S
N4427      H4447   1.046       .  S
N4427      H4448   1.046       .  S
C4429      C4432   1.402       .  A
C4429      C4436   1.409       .  A
N4430      H4445   1.046       .  S
N4430      H4446   1.045       .  S
C4432      C4433   1.411       .  A
C4432      H4437   1.084       .  S
C4433      C4434   1.417       .  A
C4433      N4438   1.438   1_565  S
C4434      C4435   1.406       .  A
C4435      C4436   1.407       .  A
C4435      H4439   1.084       .  S
C4436      N4440   1.438       .  S
N4438      H4441   1.046       .  S
N4438      H4442   1.046       .  S
N4440      H4443   1.046       .  S
N4440      H4444   1.045       .  S
C4449      C4450   1.412       .  A
C4449      C4454   1.406       .  A
C4450      C4451   1.408       .  A
C4450      N4455   1.437       .  S
C4451      C4452   1.403       .  A
C4451      H4456   1.084       .  S
C4452      C4457   1.481       .  S
C4452      C4453   1.408       .  A
C4453      C4454   1.404       .  A
C4453      N4458   1.438       .  S
C4454      H4459   1.084       .  S
N4455      H4475   1.046       .  S
N4455      H4476   1.046       .  S
C4457      C4460   1.402       .  A
C4457      C4464   1.409       .  A
N4458      H4473   1.046       .  S
N4458      H4474   1.046       .  S
C4460      C4461   1.404       .  A
C4460      H4465   1.084       .  S
C4461      C4462   1.411       .  A
C4461      N4466   1.438       .  S
C4462      C4463   1.403       .  A
C4463      C4464   1.407       .  A
C4463      H4467   1.084       .  S
C4464      N4468   1.437       .  S
N4466      H4469   1.046       .  S
N4466      H4470   1.046       .  S
N4468      H4471   1.046       .  S
N4468      H4472   1.045       .  S
C4477      C4478   1.414       .  A
C4477      C4482   1.407       .  A
C4478      C4479   1.412       .  A
C4478      N4483   1.437       .  S
C4479      C4480   1.407       .  A
C4479      H4484   1.083       .  S
C4480      C4485   1.493       .  S
C4480      C4481   1.410       .  A
C4481      C4482   1.405       .  A
C4481      N4486   1.438       .  S
C4482      H4487   1.084       .  S
N4483      H4503   1.045       .  S
N4483      H4504   1.046       .  S
C4485      C4488   1.405       .  A
C4485      C4492   1.408       .  A
N4486      H4501   1.046       .  S
N4486      H4502   1.046       .  S
C4488      C4489   1.410       .  A
C4488      H4493   1.084       .  S
C4489      C4490   1.419       .  A
C4489      N4494   1.438       .  S
C4490      C4491   1.412       .  A
C4491      C4492   1.406       .  A
C4491      H4495   1.083       .  S
C4492      N4496   1.438       .  S
N4494      H4497   1.046       .  S
N4494      H4498   1.046       .  S
N4496      H4499   1.046       .  S
N4496      H4500   1.045       .  S
C4505      C4506   1.420       .  A
C4505      C4510   1.407       .  A
C4506      C4507   1.407       .  A
C4506      N4511   1.437       .  S
C4507      C4508   1.401       .  A
C4507      H4512   1.084       .  S
C4508      C4513   1.498       .  S
C4508      C4509   1.414       .  A
C4509      C4510   1.413       .  A
C4509      N4514   1.437       .  S
C4510      H4515   1.083       .  S
N4511      H4531   1.046       .  S
N4511      H4532   1.045       .  S
C4513      C4516   1.405       .  A
C4513      C4520   1.413       .  A
N4514      H4529   1.046       .  S
N4514      H4530   1.045       .  S
C4516      C4517   1.412       .  A
C4516      H4521   1.083       .  S
C4517      C4518   1.416       .  A
C4517      N4522   1.437       .  S
C4518      C4519   1.407       .  A
C4519      C4520   1.408       .  A
C4519      H4523   1.083       .  S
C4520      N4524   1.438       .  S
N4522      H4525   1.046       .  S
N4522      H4526   1.046       .  S
N4524      H4527   1.046       .  S
N4524      H4528   1.046       .  S
C4533      C4534   1.421       .  A
C4533      C4538   1.410       .  A
C4534      C4535   1.408       .  A
C4534      N4539   1.438       .  S
C4535      C4536   1.402       .  A
C4535      H4540   1.084       .  S
C4536      C4541   1.484       .  S
C4536      C4537   1.407       .  A
C4537      C4538   1.402       .  A
C4537      N4542   1.438       .  S
C4538      H4543   1.083       .  S
N4539      H4559   1.045       .  S
N4539      H4560   1.046       .  S
C4541      C4544   1.403       .  A
C4541      C4548   1.408       .  A
N4542      H4557   1.045       .  S
N4542      H4558   1.045       .  S
C4544      C4545   1.403       .  A
C4544      H4549   1.084       .  S
C4545      C4546   1.419       .  A
C4545      N4550   1.439       .  S
C4546      C4547   1.407       .  A
C4547      C4548   1.404       .  A
C4547      H4551   1.084   1_545  S
C4548      N4552   1.438       .  S
N4550      H4553   1.046       .  S
N4550      H4554   1.041       .  S
N4552      H4555   1.046   1_545  S
N4552      H4556   1.046       .  S
C4561      C4562   1.413       .  A
C4561      C4566   1.408       .  A
C4562      C4563   1.412       .  A
C4562      N4567   1.438       .  S
C4563      C4564   1.405       .  A
C4563      H4568   1.084       .  S
C4564      C4569   1.487       .  S
C4564      C4565   1.408       .  A
C4565      C4566   1.408       .  A
C4565      N4570   1.438       .  S
C4566      H4571   1.084       .  S
N4567      H4587   1.046       .  S
N4567      H4588   1.046       .  S
C4569      C4572   1.401       .  A
C4569      C4576   1.410       .  A
N4570      H4585   1.046       .  S
N4570      H4586   1.046       .  S
C4572      C4573   1.410       .  A
C4572      H4577   1.084       .  S
C4573      C4574   1.418       .  A
C4573      N4578   1.438       .  S
C4574      C4575   1.405       .  A
C4575      C4576   1.408       .  A
C4575      H4579   1.084       .  S
C4576      N4580   1.437       .  S
N4578      H4581   1.046       .  S
N4578      H4582   1.046       .  S
N4580      H4583   1.046       .  S
N4580      H4584   1.045       .  S
C4589      C4590   1.412       .  A
C4589      C4594   1.407       .  A
C4590      C4591   1.406       .  A
C4590      N4595   1.438       .  S
C4591      C4592   1.403       .  A
C4591      H4596   1.084       .  S
C4592      C4597   1.482       .  S
C4592      C4593   1.408       .  A
C4593      C4594   1.406       .  A
C4593      N4598   1.438       .  S
C4594      H4599   1.084       .  S
N4595      H4615   1.046       .  S
N4595      H4616   1.046       .  S
C4597      C4600   1.405       .  A
C4597      C4604   1.405       .  A
N4598      H4613   1.045       .  S
N4598      H4614   1.046       .  S
C4600      C4601   1.411       .  A
C4600      H4605   1.084       .  S
C4601      C4602   1.413       .  A
C4601      N4606   1.437       .  S
C4602      C4603   1.408       .  A
C4603      C4604   1.400       .  A
C4603      H4607   1.084       .  S
C4604      N4608   1.438       .  S
N4606      H4609   1.046       .  S
N4606      H4610   1.045       .  S
N4608      H4611   1.046       .  S
N4608      H4612   1.045       .  S
C4617      C4618   1.415       .  A
C4617      C4622   1.409       .  A
C4618      C4619   1.405       .  A
C4618      N4623   1.438       .  S
C4619      C4620   1.401       .  A
C4619      H4624   1.084       .  S
C4620      C4625   1.481       .  S
C4620      C4621   1.407       .  A
C4621      C4622   1.405       .  A
C4621      N4626   1.438       .  S
C4622      H4627   1.083   1_655  S
N4623      H4643   1.045       .  S
N4623      H4644   1.046       .  S
C4625      C4628   1.400       .  A
C4625      C4632   1.407       .  A
N4626      H4641   1.046   1_655  S
N4626      H4642   1.046       .  S
C4628      C4629   1.406   1_545  A
C4628      H4633   1.084       .  S
C4629      C4630   1.419       .  A
C4629      N4634   1.438       .  S
C4630      C4631   1.408       .  A
C4631      C4632   1.405   1_565  A
C4631      H4635   1.084       .  S
C4632      N4636   1.438       .  S
N4634      H4637   1.046       .  S
N4634      H4638   1.045       .  S
N4636      H4639   1.045       .  S
N4636      H4640   1.046       .  S
C4645      C4646   1.417       .  A
C4645      C4650   1.406       .  A
C4646      C4647   1.408       .  A
C4646      N4651   1.439       .  S
C4647      C4648   1.401       .  A
C4647      H4652   1.084       .  S
C4648      C4653   1.487       .  S
C4648      C4649   1.410       .  A
C4649      C4650   1.409       .  A
C4649      N4654   1.437       .  S
C4650      H4655   1.084       .  S
N4651      H4671   1.046       .  S
N4651      H4672   1.046       .  S
C4653      C4656   1.402       .  A
C4653      C4660   1.410       .  A
N4654      H4669   1.046       .  S
N4654      H4670   1.045       .  S
C4656      C4657   1.410       .  A
C4656      H4661   1.084       .  S
C4657      C4658   1.415       .  A
C4657      N4662   1.438       .  S
C4658      C4659   1.406       .  A
C4659      C4660   1.410       .  A
C4659      H4663   1.084       .  S
C4660      N4664   1.437       .  S
N4662      H4665   1.046       .  S
N4662      H4666   1.046       .  S
N4664      H4667   1.046       .  S
N4664      H4668   1.045       .  S
C4673      C4674   1.417       .  A
C4673      C4678   1.409       .  A
C4674      C4675   1.413       .  A
C4674      N4679   1.437       .  S
C4675      C4676   1.407       .  A
C4675      H4680   1.083       .  S
C4676      C4681   1.495       .  S
C4676      C4677   1.409       .  A
C4677      C4678   1.404       .  A
C4677      N4682   1.438       .  S
C4678      H4683   1.083       .  S
N4679      H4699   1.045       .  S
N4679      H4700   1.046       .  S
C4681      C4684   1.403       .  A
C4681      C4688   1.411       .  A
N4682      H4697   1.046       .  S
N4682      H4698   1.046       .  S
C4684      C4685   1.407       .  A
C4684      H4689   1.084       .  S
C4685      C4686   1.417       .  A
C4685      N4690   1.437       .  S
C4686      C4687   1.408       .  A
C4687      C4688   1.410       .  A
C4687      H4691   1.083       .  S
C4688      N4692   1.437       .  S
N4690      H4693   1.046       .  S
N4690      H4694   1.046       .  S
N4692      H4695   1.046       .  S
N4692      H4696   1.045       .  S
C4701      C4702   1.420       .  A
C4701      C4706   1.405   1_455  A
C4702      C4703   1.407   1_455  A
C4702      N4707   1.439       .  S
C4703      C4704   1.405       .  A
C4703      H4708   1.084       .  S
C4704      C4709   1.495       .  S
C4704      C4705   1.411       .  A
C4705      C4706   1.408       .  A
C4705      N4710   1.438       .  S
C4706      H4711   1.084       .  S
N4707      H4727   1.042       .  S
N4707      H4728   1.045       .  S
C4709      C4712   1.405       .  A
C4709      C4716   1.410       .  A
N4710      H4725   1.045       .  S
N4710      H4726   1.046       .  S
C4712      C4713   1.410       .  A
C4712      H4717   1.084       .  S
C4713      C4714   1.416   1_545  A
C4713      N4718   1.438       .  S
C4714      C4715   1.411       .  A
C4715      C4716   1.409   1_565  A
C4715      H4719   1.083       .  S
C4716      N4720   1.438       .  S
N4718      H4721   1.046       .  S
N4718      H4722   1.046       .  S
N4720      H4723   1.046       .  S
N4720      H4724   1.046       .  S
C4729      C4730   1.416       .  A
C4729      C4734   1.406       .  A
C4730      C4731   1.407       .  A
C4730      N4735   1.438       .  S
C4731      C4732   1.400       .  A
C4731      H4736   1.084       .  S
C4732      C4737   1.478       .  S
C4732      C4733   1.408       .  A
C4733      C4734   1.406       .  A
C4733      N4738   1.438       .  S
C4734      H4739   1.084       .  S
N4735      H4755   1.045       .  S
N4735      H4756   1.046       .  S
C4737      C4740   1.401       .  A
C4737      C4744   1.408       .  A
N4738      H4753   1.046       .  S
N4738      H4754   1.045       .  S
C4740      C4741   1.407       .  A
C4740      H4745   1.084       .  S
C4741      C4742   1.413       .  A
C4741      N4746   1.438       .  S
C4742      C4743   1.405       .  A
C4743      C4744   1.404       .  A
C4743      H4747   1.084       .  S
C4744      N4748   1.438       .  S
N4746      H4749   1.046       .  S
N4746      H4750   1.046       .  S
N4748      H4751   1.046       .  S
N4748      H4752   1.045       .  S
C4757      C4758   1.413   1_565  A
C4757      C4762   1.405       .  A
C4758      C4759   1.402       .  A
C4758      N4763   1.438       .  S
C4759      C4760   1.400       .  A
C4759      H4764   1.084       .  S
C4760      C4765   1.482       .  S
C4760      C4761   1.412       .  A
C4761      C4762   1.409   1_545  A
C4761      N4766   1.438       .  S
C4762      H4767   1.084       .  S
N4763      H4783   1.046   1_545  S
N4763      H4784   1.046       .  S
C4765      C4768   1.396       .  A
C4765      C4772   1.409       .  A
N4766      H4781   1.046   1_545  S
N4766      H4782   1.045       .  S
C4768      C4769   1.405       .  A
C4768      H4773   1.084       .  S
C4769      C4770   1.427       .  A
C4769      N4774   1.439       .  S
C4770      C4771   1.407       .  A
C4771      C4772   1.406       .  A
C4771      H4775   1.083       .  S
C4772      N4776   1.438       .  S
N4774      H4777   1.046       .  S
N4774      H4778   1.045       .  S
N4776      H4779   1.046       .  S
N4776      H4780   1.046       .  S
C4785      C4786   1.413       .  A
C4785      C4790   1.405       .  A
C4786      C4787   1.405       .  A
C4786      N4791   1.438       .  S
C4787      C4788   1.401       .  A
C4787      H4792   1.084       .  S
C4788      C4793   1.476       .  S
C4788      C4789   1.406       .  A
C4789      C4790   1.405       .  A
C4789      N4794   1.437       .  S
C4790      H4795   1.084       .  S
N4791      H4811   1.046       .  S
N4791      H4812   1.046       .  S
C4793      C4796   1.402       .  A
C4793      C4800   1.407       .  A
N4794      H4809   1.045       .  S
N4794      H4810   1.046       .  S
C4796      C4797   1.406       .  A
C4796      H4801   1.084       .  S
C4797      C4798   1.411       .  A
C4797      N4802   1.437       .  S
C4798      C4799   1.405       .  A
C4799      C4800   1.403       .  A
C4799      H4803   1.084       .  S
C4800      N4804   1.438       .  S
N4802      H4805   1.046       .  S
N4802      H4806   1.046       .  S
N4804      H4807   1.046       .  S
N4804      H4808   1.046       .  S
C4813      C4814   1.423       .  A
C4813      C4818   1.410       .  A
C4814      C4815   1.404       .  A
C4814      N4819   1.438       .  S
C4815      C4816   1.399       .  A
C4815      H4820   1.084       .  S
C4816      C4821   1.489   1_565  S
C4816      C4817   1.410       .  A
C4817      C4818   1.410       .  A
C4817      N4822   1.437       .  S
C4818      H4823   1.083       .  S
N4819      H4839   1.045       .  S
N4819      H4840   1.046       .  S
C4821      C4824   1.405       .  A
C4821      C4828   1.412   1_545  A
N4822      H4837   1.046       .  S
N4822      H4838   1.046       .  S
C4824      C4825   1.409       .  A
C4824      H4829   1.084       .  S
C4825      C4826   1.414       .  A
C4825      N4830   1.438       .  S
C4826      C4827   1.403       .  A
C4827      C4828   1.404   1_545  A
C4827      H4831   1.084       .  S
C4828      N4832   1.438       .  S
N4830      H4833   1.046       .  S
N4830      H4834   1.046       .  S
N4832      H4835   1.046       .  S
N4832      H4836   1.046       .  S
C4841      C4842   1.417       .  A
C4841      C4846   1.405       .  A
C4842      C4843   1.408       .  A
C4842      N4847   1.438       .  S
C4843      C4844   1.404       .  A
C4843      H4848   1.083       .  S
C4844      C4849   1.499       .  S
C4844      C4845   1.416       .  A
C4845      C4846   1.411       .  A
C4845      N4850   1.438       .  S
C4846      H4851   1.084       .  S
N4847      H4867   1.046       .  S
N4847      H4868   1.045       .  S
C4849      C4852   1.405       .  A
C4849      C4856   1.414       .  A
N4850      H4865   1.046       .  S
N4850      H4866   1.045       .  S
C4852      C4853   1.409       .  A
C4852      H4857   1.083       .  S
C4853      C4854   1.416       .  A
C4853      N4858   1.438       .  S
C4854      C4855   1.408       .  A
C4855      C4856   1.409       .  A
C4855      H4859   1.083       .  S
C4856      N4860   1.438       .  S
N4858      H4861   1.046       .  S
N4858      H4862   1.046       .  S
N4860      H4863   1.046       .  S
N4860      H4864   1.046       .  S
C4869      C4870   1.417       .  A
C4869      C4874   1.408       .  A
C4870      C4871   1.404       .  A
C4870      N4875   1.437       .  S
C4871      C4872   1.401       .  A
C4871      H4876   1.084       .  S
C4872      C4877   1.489       .  S
C4872      C4873   1.411       .  A
C4873      C4874   1.409       .  A
C4873      N4878   1.437       .  S
C4874      H4879   1.083       .  S
N4875      H4895   1.045       .  S
N4875      H4896   1.046       .  S
C4877      C4880   1.404       .  A
C4877      C4884   1.411       .  A
N4878      H4893   1.046       .  S
N4878      H4894   1.046       .  S
C4880      C4881   1.409       .  A
C4880      H4885   1.084       .  S
C4881      C4882   1.416       .  A
C4881      N4886   1.438       .  S
C4882      C4883   1.406       .  A
C4883      C4884   1.405       .  A
C4883      H4887   1.084       .  S
C4884      N4888   1.438       .  S
N4886      H4889   1.046       .  S
N4886      H4890   1.046       .  S
N4888      H4891   1.046       .  S
N4888      H4892   1.045       .  S
C4897      C4898   1.413       .  A
C4897      C4902   1.407       .  A
C4898      C4899   1.405       .  A
C4898      N4903   1.438       .  S
C4899      C4900   1.401       .  A
C4899      H4904   1.084       .  S
C4900      C4905   1.478       .  S
C4900      C4901   1.408       .  A
C4901      C4902   1.406       .  A
C4901      N4906   1.438       .  S
C4902      H4907   1.084       .  S
N4903      H4923   1.046       .  S
N4903      H4924   1.046       .  S
C4905      C4908   1.399       .  A
C4905      C4912   1.410       .  A
N4906      H4921   1.046       .  S
N4906      H4922   1.044       .  S
C4908      C4909   1.400       .  A
C4908      H4913   1.084       .  S
C4909      C4910   1.412       .  A
C4909      N4914   1.433       .  S
C4910      C4911   1.407       .  A
C4911      C4912   1.409       .  A
C4911      H4915   1.084       .  S
C4912      N4916   1.438       .  S
N4914      H4917   1.045       .  S
N4914      H4918   1.046       .  S
N4916      H4919   1.046       .  S
N4916      H4920   1.044       .  S
C4925      C4926   1.419       .  A
C4925      C4930   1.407       .  A
C4926      C4927   1.401   1_655  A
C4926      N4931   1.439       .  S
C4927      C4928   1.402       .  A
C4927      H4932   1.084       .  S
C4928      C4933   1.488       .  S
C4928      C4929   1.411       .  A
C4929      C4930   1.409   1_455  A
C4929      N4934   1.438       .  S
C4930      H4935   1.084       .  S
N4931      H4951   1.042       .  S
N4931      H4952   1.046       .  S
C4933      C4936   1.401       .  A
C4933      C4940   1.410       .  A
N4934      H4949   1.046       .  S
N4934      H4950   1.045       .  S
C4936      C4937   1.407       .  A
C4936      H4941   1.084       .  S
C4937      C4938   1.421       .  A
C4937      N4942   1.438   1_565  S
C4938      C4939   1.409       .  A
C4939      C4940   1.405       .  A
C4939      H4943   1.083       .  S
C4940      N4944   1.439       .  S
N4942      H4945   1.046   1_545  S
N4942      H4946   1.046       .  S
N4944      H4947   1.046       .  S
N4944      H4948   1.045       .  S
C4953      C4954   1.418       .  A
C4953      C4958   1.408       .  A
C4954      C4955   1.407       .  A
C4954      N4959   1.439       .  S
C4955      C4956   1.402       .  A
C4955      H4960   1.084       .  S
C4956      C4961   1.485       .  S
C4956      C4957   1.408       .  A
C4957      C4958   1.407       .  A
C4957      N4962   1.437       .  S
C4958      H4963   1.083       .  S
N4959      H4979   1.046       .  S
N4959      H4980   1.046       .  S
C4961      C4964   1.403       .  A
C4961      C4968   1.408       .  A
N4962      H4977   1.046       .  S
N4962      H4978   1.046       .  S
C4964      C4965   1.409       .  A
C4964      H4969   1.084       .  S
C4965      C4966   1.415       .  A
C4965      N4970   1.437       .  S
C4966      C4967   1.407       .  A
C4967      C4968   1.404       .  A
C4967      H4971   1.084       .  S
C4968      N4972   1.438       .  S
N4970      H4973   1.045       .  S
N4970      H4974   1.046       .  S
N4972      H4975   1.046       .  S
N4972      H4976   1.046       .  S
C4981      C4982   1.423   1_655  A
C4981      C4986   1.408   1_655  A
C4982      C4983   1.407       .  A
C4982      N4987   1.437   1_455  S
C4983      C4984   1.400       .  A
C4983      H4988   1.084       .  S
C4984      C4989   1.493       .  S
C4984      C4985   1.412       .  A
C4985      C4986   1.408       .  A
C4985      N4990   1.438       .  S
C4986      H4991   1.083       .  S
N4987      H5007   1.046       .  S
N4987      H5008   1.046       .  S
C4989      C4992   1.402       .  A
C4989      C4996   1.415       .  A
N4990      H5005   1.046       .  S
N4990      H5006   1.046       .  S
C4992      C4993   1.405       .  A
C4992      H4997   1.084       .  S
C4993      C4994   1.414   1_565  A
C4993      N4998   1.438       .  S
C4994      C4995   1.403       .  A
C4995      C4996   1.411   1_545  A
C4995      H4999   1.084       .  S
C4996      N5000   1.437       .  S
N4998      H5001   1.046       .  S
N4998      H5002   1.046       .  S
N5000      H5003   1.046       .  S
N5000      H5004   1.045       .  S
C5009      C5010   1.415       .  A
C5009      C5014   1.408       .  A
C5010      C5011   1.405       .  A
C5010      N5015   1.438       .  S
C5011      C5012   1.399       .  A
C5011      H5016   1.084       .  S
C5012      C5017   1.478       .  S
C5012      C5013   1.407       .  A
C5013      C5014   1.407       .  A
C5013      N5018   1.438       .  S
C5014      H5019   1.084       .  S
N5015      H5035   1.046       .  S
N5015      H5036   1.046       .  S
C5017      C5020   1.400       .  A
C5017      C5024   1.408       .  A
N5018      H5033   1.046       .  S
N5018      H5034   1.045       .  S
C5020      C5021   1.404       .  A
C5020      H5025   1.084       .  S
C5021      C5022   1.413       .  A
C5021      N5026   1.438       .  S
C5022      C5023   1.406       .  A
C5023      C5024   1.408       .  A
C5023      H5027   1.084       .  S
C5024      N5028   1.438       .  S
N5026      H5029   1.045       .  S
N5026      H5030   1.046       .  S
N5028      H5031   1.046       .  S
N5028      H5032   1.045       .  S
C5037      C5038   1.412       .  A
C5037      C5042   1.405       .  A
C5038      C5039   1.401       .  A
C5038      N5043   1.432       .  S
C5039      C5040   1.401       .  A
C5039      H5044   1.084       .  S
C5040      C5045   1.485       .  S
C5040      C5041   1.412       .  A
C5041      C5042   1.409       .  A
C5041      N5046   1.438       .  S
C5042      H5047   1.083       .  S
N5043      H5063   1.045       .  S
N5043      H5064   1.046       .  S
C5045      C5048   1.403       .  A
C5045      C5052   1.409       .  A
N5046      H5061   1.046       .  S
N5046      H5062   1.046       .  S
C5048      C5049   1.409       .  A
C5048      H5053   1.084       .  S
C5049      C5050   1.417       .  A
C5049      N5054   1.438       .  S
C5050      C5051   1.408       .  A
C5051      C5052   1.403       .  A
C5051      H5055   1.083       .  S
C5052      N5056   1.439       .  S
N5054      H5057   1.046       .  S
N5054      H5058   1.046       .  S
N5056      H5059   1.046       .  S
N5056      H5060   1.046       .  S
C5065      C5066   1.415       .  A
C5065      C5070   1.407       .  A
C5066      C5067   1.403       .  A
C5066      N5071   1.437       .  S
C5067      C5068   1.397       .  A
C5067      H5072   1.084       .  S
C5068      C5073   1.474       .  S
C5068      C5069   1.407       .  A
C5069      C5070   1.407       .  A
C5069      N5074   1.438   1_655  S
C5070      H5075   1.084   1_655  S
N5071      H5091   1.046       .  S
N5071      H5092   1.046       .  S
C5073      C5076   1.399       .  A
C5073      C5080   1.408       .  A
N5074      H5089   1.046       .  S
N5074      H5090   1.045       .  S
C5076      C5077   1.402       .  A
C5076      H5081   1.084       .  S
C5077      C5078   1.413       .  A
C5077      N5082   1.439       .  S
C5078      C5079   1.405       .  A
C5079      C5080   1.406       .  A
C5079      H5083   1.084       .  S
C5080      N5084   1.438       .  S
N5082      H5085   1.046       .  S
N5082      H5086   1.046       .  S
N5084      H5087   1.046       .  S
N5084      H5088   1.045       .  S
C5093      C5094   1.420       .  A
C5093      C5098   1.408       .  A
C5094      C5095   1.402       .  A
C5094      N5099   1.439       .  S
C5095      C5096   1.397       .  A
C5095      H5100   1.084       .  S
C5096      C5101   1.472       .  S
C5096      C5097   1.406       .  A
C5097      C5098   1.402       .  A
C5097      N5102   1.438       .  S
C5098      H5103   1.083       .  S
N5099      H5119   1.046       .  S
N5099      H5120   1.046       .  S
C5101      C5104   1.400       .  A
C5101      C5108   1.409       .  A
N5102      H5117   1.046       .  S
N5102      H5118   1.046       .  S
C5104      C5105   1.396       .  A
C5104      H5109   1.084       .  S
C5105      C5106   1.409   1_565  A
C5105      N5110   1.433   1_565  S
C5106      C5107   1.404   1_545  A
C5107      C5108   1.403       .  A
C5107      H5111   1.084   1_565  S
C5108      N5112   1.437       .  S
N5110      H5113   1.046       .  S
N5110      H5114   1.045   1_545  S
N5112      H5115   1.046       .  S
N5112      H5116   1.046       .  S
C5121      C5122   1.412       .  A
C5121      C5126   1.409       .  A
C5122      C5123   1.404       .  A
C5122      N5127   1.437       .  S
C5123      C5124   1.403       .  A
C5123      H5128   1.084       .  S
C5124      C5129   1.480       .  S
C5124      C5125   1.407       .  A
C5125      C5126   1.403       .  A
C5125      N5130   1.438       .  S
C5126      H5131   1.084       .  S
N5127      H5147   1.045       .  S
N5127      H5148   1.046       .  S
C5129      C5132   1.404       .  A
C5129      C5136   1.406       .  A
N5130      H5145   1.046       .  S
N5130      H5146   1.046       .  S
C5132      C5133   1.411       .  A
C5132      H5137   1.084       .  S
C5133      C5134   1.415       .  A
C5133      N5138   1.437       .  S
C5134      C5135   1.405       .  A
C5135      C5136   1.399       .  A
C5135      H5139   1.084       .  S
C5136      N5140   1.439       .  S
N5138      H5141   1.046       .  S
N5138      H5142   1.045       .  S
N5140      H5143   1.045       .  S
N5140      H5144   1.045       .  S
C5149      C5150   1.415       .  A
C5149      C5154   1.405       .  A
C5150      C5151   1.404       .  A
C5150      N5155   1.438       .  S
C5151      C5152   1.399       .  A
C5151      H5156   1.084       .  S
C5152      C5157   1.478       .  S
C5152      C5153   1.409       .  A
C5153      C5154   1.409       .  A
C5153      N5158   1.438       .  S
C5154      H5159   1.084       .  S
N5155      H5175   1.046       .  S
N5155      H5176   1.046       .  S
C5157      C5160   1.401       .  A
C5157      C5164   1.410       .  A
N5158      H5173   1.046       .  S
N5158      H5174   1.044       .  S
C5160      C5161   1.405       .  A
C5160      H5165   1.084       .  S
C5161      C5162   1.411   1_455  A
C5161      N5166   1.438   1_455  S
C5162      C5163   1.402   1_655  A
C5163      C5164   1.406       .  A
C5163      H5167   1.083       .  S
C5164      N5168   1.437       .  S
N5166      H5169   1.046       .  S
N5166      H5170   1.046       .  S
N5168      H5171   1.046       .  S
N5168      H5172   1.045       .  S
C5177      C5178   1.410       .  A
C5177      C5182   1.404       .  A
C5178      C5179   1.399       .  A
C5178      N5183   1.432       .  S
C5179      C5180   1.399       .  A
C5179      H5184   1.084       .  S
C5180      C5185   1.474       .  S
C5180      C5181   1.409       .  A
C5181      C5182   1.407       .  A
C5181      N5186   1.438       .  S
C5182      H5187   1.084       .  S
N5183      H5203   1.046       .  S
N5183      H5204   1.046       .  S
C5185      C5188   1.403       .  A
C5185      C5192   1.406       .  A
N5186      H5201   1.046       .  S
N5186      H5202   1.046       .  S
C5188      C5189   1.406       .  A
C5188      H5193   1.084       .  S
C5189      C5190   1.412       .  A
C5189      N5194   1.438       .  S
C5190      C5191   1.404       .  A
C5191      C5192   1.401       .  A
C5191      H5195   1.084       .  S
C5192      N5196   1.438       .  S
N5194      H5197   1.046       .  S
N5194      H5198   1.045       .  S
N5196      H5199   1.046       .  S
N5196      H5200   1.045       .  S
C5205      C5206   1.420       .  A
C5205      C5210   1.410       .  A
C5206      C5207   1.409       .  A
C5206      N5211   1.437       .  S
C5207      C5208   1.402       .  A
C5207      H5212   1.084       .  S
C5208      C5213   1.490   1_455  S
C5208      C5209   1.409       .  A
C5209      C5210   1.407       .  A
C5209      N5214   1.438   1_455  S
C5210      H5215   1.083       .  S
N5211      H5231   1.045       .  S
N5211      H5232   1.045       .  S
C5213      C5216   1.402       .  A
C5213      C5220   1.411       .  A
N5214      H5229   1.046       .  S
N5214      H5230   1.046       .  S
C5216      C5217   1.407       .  A
C5216      H5221   1.084   1_655  S
C5217      C5218   1.418       .  A
C5217      N5222   1.438       .  S
C5218      C5219   1.406       .  A
C5219      C5220   1.409       .  A
C5219      H5223   1.084       .  S
C5220      N5224   1.437       .  S
N5222      H5225   1.046   1_655  S
N5222      H5226   1.045       .  S
N5224      H5227   1.046       .  S
N5224      H5228   1.046       .  S
C5233      C5234   1.416       .  A
C5233      C5238   1.407       .  A
C5234      C5235   1.402       .  A
C5234      N5239   1.439       .  S
C5235      C5236   1.401       .  A
C5235      H5240   1.084       .  S
C5236      C5241   1.488       .  S
C5236      C5237   1.412       .  A
C5237      C5238   1.410       .  A
C5237      N5242   1.437       .  S
C5238      H5243   1.084       .  S
N5239      H5259   1.046       .  S
N5239      H5260   1.046       .  S
C5241      C5244   1.403       .  A
C5241      C5248   1.411       .  A
N5242      H5257   1.046       .  S
N5242      H5258   1.046       .  S
C5244      C5245   1.410       .  A
C5244      H5249   1.084       .  S
C5245      C5246   1.415       .  A
C5245      N5250   1.438       .  S
C5246      C5247   1.404       .  A
C5247      C5248   1.404       .  A
C5247      H5251   1.084       .  S
C5248      N5252   1.438       .  S
N5250      H5253   1.046       .  S
N5250      H5254   1.046       .  S
N5252      H5255   1.046       .  S
N5252      H5256   1.046       .  S
C5261      C5262   1.415       .  A
C5261      C5266   1.412       .  A
C5262      C5263   1.407       .  A
C5262      N5267   1.437       .  S
C5263      C5264   1.404       .  A
C5263      H5268   1.084       .  S
C5264      C5269   1.490       .  S
C5264      C5265   1.408       .  A
C5265      C5266   1.410       .  A
C5265      N5270   1.438       .  S
C5266      H5271   1.083       .  S
N5267      H5287   1.045       .  S
N5267      H5288   1.046       .  S
C5269      C5272   1.407       .  A
C5269      C5276   1.407       .  A
N5270      H5285   1.046       .  S
N5270      H5286   1.046       .  S
C5272      C5273   1.415   1_455  A
C5272      H5277   1.083       .  S
C5273      C5274   1.414       .  A
C5273      N5278   1.437       .  S
C5274      C5275   1.408   1_655  A
C5275      C5276   1.402       .  A
C5275      H5279   1.084       .  S
C5276      N5280   1.438       .  S
N5278      H5281   1.045       .  S
N5278      H5282   1.046       .  S
N5280      H5283   1.045       .  S
N5280      H5284   1.046       .  S
C5289      C5290   1.420       .  A
C5289      C5294   1.405       .  A
C5290      C5291   1.406       .  A
C5290      N5295   1.439       .  S
C5291      C5292   1.398       .  A
C5291      H5296   1.084       .  S
C5292      C5297   1.480       .  S
C5292      C5293   1.409       .  A
C5293      C5294   1.407       .  A
C5293      N5298   1.438       .  S
C5294      H5299   1.083       .  S
N5295      H5315   1.046       .  S
N5295      H5316   1.046       .  S
C5297      C5300   1.402       .  A
C5297      C5304   1.409       .  A
N5298      H5313   1.046       .  S
N5298      H5314   1.045       .  S
C5300      C5301   1.409       .  A
C5300      H5305   1.084       .  S
C5301      C5302   1.414       .  A
C5301      N5306   1.438       .  S
C5302      C5303   1.404       .  A
C5303      C5304   1.404       .  A
C5303      H5307   1.084       .  S
C5304      N5308   1.438       .  S
N5306      H5309   1.046       .  S
N5306      H5310   1.046       .  S
N5308      H5311   1.046       .  S
N5308      H5312   1.045       .  S
C5317      C5318   1.419       .  A
C5317      C5322   1.409       .  A
C5318      C5319   1.407       .  A
C5318      N5323   1.437       .  S
C5319      C5320   1.398       .  A
C5319      H5324   1.084       .  S
C5320      C5325   1.484       .  S
C5320      C5321   1.409       .  A
C5321      C5322   1.408       .  A
C5321      N5326   1.438       .  S
C5322      H5327   1.083       .  S
N5323      H5343   1.046       .  S
N5323      H5344   1.046       .  S
C5325      C5328   1.399       .  A
C5325      C5332   1.411       .  A
N5326      H5341   1.046       .  S
N5326      H5342   1.046       .  S
C5328      C5329   1.401       .  A
C5328      H5333   1.084       .  S
C5329      C5330   1.414       .  A
C5329      N5334   1.433       .  S
C5330      C5331   1.404       .  A
C5331      C5332   1.411       .  A
C5331      H5335   1.083       .  S
C5332      N5336   1.437       .  S
N5334      H5337   1.045       .  S
N5334      H5338   1.046       .  S
N5336      H5339   1.046       .  S
N5336      H5340   1.046       .  S
C5345      C5346   1.414       .  A
C5345      C5350   1.402       .  A
C5346      C5347   1.401       .  A
C5346      N5351   1.437       .  S
C5347      C5348   1.400       .  A
C5347      H5352   1.084       .  S
C5348      C5353   1.486       .  S
C5348      C5349   1.414       .  A
C5349      C5350   1.408       .  A
C5349      N5354   1.437       .  S
C5350      H5355   1.084       .  S
N5351      H5371   1.043       .  S
N5351      H5372   1.046       .  S
C5353      C5356   1.402       .  A
C5353      C5360   1.410       .  A
N5354      H5369   1.046       .  S
N5354      H5370   1.046       .  S
C5356      C5357   1.405       .  A
C5356      H5361   1.084       .  S
C5357      C5358   1.416       .  A
C5357      N5362   1.433       .  S
C5358      C5359   1.408       .  A
C5359      C5360   1.405       .  A
C5359      H5363   1.082       .  S
C5360      N5364   1.439       .  S
N5362      H5365   1.046       .  S
N5362      H5366   1.046       .  S
N5364      H5367   1.046       .  S
N5364      H5368   1.046       .  S
C5373      C5374   1.409       .  A
C5373      C5378   1.402       .  A
C5374      C5375   1.403       .  A
C5374      N5379   1.438       .  S
C5375      C5376   1.403       .  A
C5375      H5380   1.084       .  S
C5376      C5381   1.480       .  S
C5376      C5377   1.411       .  A
C5377      C5378   1.402       .  A
C5377      N5382   1.438       .  S
C5378      H5383   1.084       .  S
N5379      H5399   1.046       .  S
N5379      H5400   1.046   1_545  S
C5381      C5384   1.400       .  A
C5381      C5388   1.406       .  A
N5382      H5397   1.046       .  S
N5382      H5398   1.046       .  S
C5384      C5385   1.405       .  A
C5384      H5389   1.084       .  S
C5385      C5386   1.420       .  A
C5385      N5390   1.438       .  S
C5386      C5387   1.411       .  A
C5387      C5388   1.404       .  A
C5387      H5391   1.083   1_545  S
C5388      N5392   1.438   1_545  S
N5390      H5393   1.046       .  S
N5390      H5394   1.046       .  S
N5392      H5395   1.045       .  S
N5392      H5396   1.046   1_565  S
