geometry optimzed in LAMMPS
_audit_creation_date              2020-12-01 
_audit_creation_method            'lammps2cif' 
_symmetry_space_group_name_H-M    'P1' 
_symmetry_Int_Tables_number       1 
_symmetry_cell_setting            triclinic 
loop_ 
_symmetry_equiv_pos_as_xyz 
  x,y,z 
_cell_length_a                    25.62120014 
_cell_length_b                    25.611553058432225 
_cell_length_c                    32.47850712710975 
_cell_angle_alpha                 89.70764168457593 
_cell_angle_beta                  90.08357689218009 
_cell_angle_gamma                 90.17696263273777 
loop_ 
_atom_site_label 
_atom_site_type_symbol 
_atom_site_fract_x 
_atom_site_fract_y 
_atom_site_fract_z 
_atom_site_charge 
O1          O  0.49686703  0.10077686  0.92359256    -0.86800
O2          O  0.59872025  0.08219041  0.94778062    -0.83900
C3          C  0.58757557  0.03806440  0.93370618     0.96600
O4          O  0.59676983  0.02975608  0.89618846    -0.83900
O5          O  0.59855021  0.05013225  0.81156250    -0.86600
C6          C  0.55233580  0.04891140  0.79764820     1.01100
O7          O  0.51857807  0.07967410  0.81124957    -0.79300
O8          O  0.46841449  0.13880248  0.86698149    -0.79500
C9          C  0.46243840  0.10577599  0.89582141     1.01100
O10         O  0.52099709  0.20858971  0.91482054    -0.86800
O11         O  0.62741101  0.18574407  0.92635758    -0.83900
C12         C  0.67145110  0.16426002  0.92072373     0.96600
O13         O  0.67349496  0.11739571  0.90756588    -0.83900
O14         O  0.66302390  0.13914250  0.82639625    -0.86500
C15         C  0.64008397  0.16278192  0.79753316     1.01100
O16         O  0.59077882  0.16310133  0.79395534    -0.79400
O17         O  0.53938797  0.22403242  0.85047059    -0.79500
C18         C  0.52043732  0.23888006  0.88419958     1.01100
Cr19       Cr  0.56198181  0.14363628  0.92488144     1.93700
Cr20       Cr  0.62909055  0.08631717  0.86177053     1.93200
Cr21       Cr  0.53281190  0.14990201  0.83355069     1.39100
O22         O  0.57492539  0.12743275  0.87269628    -1.24600
O23         O  0.39322229  0.99767044  0.53725252    -0.86800
O24         O  0.41005209  0.89413654  0.51705666    -0.83900
C25         C  0.45442808  0.90530695  0.53089476     0.96600
O26         O  0.46337333  0.89632054  0.56845354    -0.83900
O27         O  0.44411721  0.90090788  0.65308292    -0.86600
C28         C  0.44922108  0.94875981  0.66238113     1.01100
O29         O  0.41986247  0.98217197  0.64606639    -0.79300
O30         O  0.35404004  0.02845668  0.59174248    -0.79500
C31         C  0.38806258  0.03330036  0.56383044     1.01100
O32         O  0.28478785  0.97370135  0.54950746    -0.86800
O33         O  0.30621474  0.86765441  0.54037169    -0.83900
C34         C  0.32673136  0.82350137  0.54768838     0.96600
O35         O  0.37391961  0.82121654  0.56034107    -0.83900
O36         O  0.35293288  0.83773119  0.64068593    -0.86500
C37         C  0.33378763  0.86317439  0.66999856     1.01100
O38         O  0.33824643  0.91235964  0.67239476    -0.79400
O39         O  0.27262264  0.95760055  0.61492014    -0.79500
C40         C  0.25571922  0.97431374  0.58082140     1.01100
Cr41       Cr  0.34937873  0.93259255  0.53896259     1.93700
Cr42       Cr  0.40663057  0.86752730  0.60421362     1.93200
Cr43       Cr  0.34744331  0.96675426  0.62881925     1.39100
O44         O  0.36697235  0.92194006  0.59120114    -1.24600
O45         O  0.14334006  0.99492814  0.92973378    -0.86800
O46         O  0.12399042  0.89183071  0.94982837    -0.83900
C47         C  0.07993466  0.90405622  0.93586052     0.96600
O48         O  0.07126955  0.89625002  0.89813161    -0.83900
O49         O  0.09082600  0.90103523  0.81346922    -0.86600
C50         C  0.08740682  0.94906708  0.80402327     1.01100
O51         O  0.11837455  0.98134183  0.81985601    -0.79300
O52         O  0.18280879  0.02641921  0.87513072    -0.79500
C53         C  0.14913059  0.03092695  0.90330487     1.01100
O54         O  0.25115852  0.97094922  0.91837021    -0.86800
O55         O  0.22766647  0.86439310  0.92690854    -0.83900
C56         C  0.20634122  0.82062278  0.91945898     0.96600
O57         O  0.15922268  0.81913933  0.90645329    -0.83900
O58         O  0.18077534  0.83617002  0.82620316    -0.86500
C59         C  0.20316807  0.86167665  0.79808868     1.01100
O60         O  0.19977261  0.91090171  0.79523867    -0.79400
O61         O  0.26422299  0.95570929  0.85319064    -0.79500
C62         C  0.28038998  0.97305880  0.88717275     1.01100
Cr63       Cr  0.18581990  0.92973352  0.92817158     1.93700
Cr64       Cr  0.12757002  0.86662177  0.86247908     1.93200
Cr65       Cr  0.18984574  0.96506757  0.83830142     1.39100
O66         O  0.16861116  0.92011032  0.87572780    -1.24600
O67         O  0.03962171  0.09909718  0.54106737    -0.86800
O68         O  0.93776849  0.08085963  0.51626755    -0.83900
C69         C  0.95025749  0.03708718  0.53050577     0.96600
O70         O  0.94107607  0.02895309  0.56809247    -0.83900
O71         O  0.94021525  0.04813056  0.65208561    -0.86600
C72         C  0.98485847  0.05143528  0.66870064     1.01100
O73         O  0.01713554  0.08538408  0.65704748    -0.79300
O74         O  0.06806953  0.13825362  0.59719619    -0.79500
C75         C  0.07354177  0.10421485  0.56921776     1.01100
O76         O  0.01798884  0.20663067  0.54605904    -0.86800
O77         O  0.91063342  0.18531667  0.53683241    -0.83900
C78         C  0.86630951  0.16497370  0.54433961     0.96600
O79         O  0.86362376  0.11779857  0.55743543    -0.83900
O80         O  0.87404000  0.13629324  0.63930208    -0.86500
C81         C  0.89645033  0.16399577  0.66609155     1.01100
O82         O  0.94555509  0.16917835  0.66771996    -0.79400
O83         O  0.99708502  0.22535964  0.60891247    -0.79500
C84         C  0.01763185  0.23840855  0.57530487     1.01100
Cr85       Cr  0.97531484  0.14229512  0.53843783     1.93700
Cr86       Cr  0.90855548  0.08519296  0.60270229     1.93200
Cr87       Cr  0.00355352  0.15279691  0.62964123     1.39100
O88         O  0.96224477  0.12725486  0.59118443    -1.24600
O89         O  0.39152511  0.45355952  0.92401966    -0.86800
O90         O  0.40976521  0.55585252  0.94678215    -0.83900
C91         C  0.45396550  0.54506036  0.93259214     0.96600
O92         O  0.46236051  0.55466138  0.89506034    -0.83900
O93         O  0.44270866  0.55307977  0.81047198    -0.86600
C94         C  0.44641527  0.50541984  0.80030601     1.01100
O95         O  0.41529459  0.47241432  0.81509165    -0.79300
O96         O  0.35177996  0.42415406  0.86905157    -0.79500
C97         C  0.38613179  0.41874817  0.89676165     1.01100
O98         O  0.28300190  0.47774569  0.91364884    -0.86800
O99         O  0.30589069  0.58371803  0.92450585    -0.83900
C100        C  0.32683308  0.62797718  0.91785808     0.96600
O101        O  0.37389992  0.63039560  0.90493597    -0.83900
O102        O  0.35247895  0.61707960  0.82445470    -0.86500
C103        C  0.33046869  0.59285922  0.79567009     1.01100
O104        O  0.33355477  0.54372362  0.79198566    -0.79400
O105        O  0.26925234  0.49544623  0.84874101    -0.79500
C106        C  0.25318964  0.47755448  0.88270273     1.01100
Cr107      Cr  0.34825885  0.51854968  0.92423024     1.93700
Cr108      Cr  0.40575425  0.58520257  0.86004111     1.93200
Cr109      Cr  0.34385615  0.48742570  0.83373966     1.39100
O110        O  0.36502695  0.53083096  0.87208030    -1.24600
O111        O  0.50087178  0.35417504  0.54114845    -0.86800
O112        O  0.60468278  0.37087857  0.51830079    -0.83900
C113        C  0.59181283  0.41479829  0.53135281     0.96600
O114        O  0.59945271  0.42356842  0.56901446    -0.83900
O115        O  0.59798467  0.40446918  0.65325806    -0.86600
C116        C  0.55252205  0.40228683  0.66845488     1.01100
O117        O  0.52028795  0.36858691  0.65647786    -0.79300
O118        O  0.47093230  0.31447571  0.59668795    -0.79500
C119        C  0.46595845  0.34876806  0.56858312     1.01100
O120        O  0.52227822  0.24606495  0.54758261    -0.86800
O121        O  0.63030846  0.26719264  0.53973004    -0.83900
C122        C  0.67464255  0.28771133  0.54717524     0.96600
O123        O  0.67716597  0.33449615  0.56082012    -0.83900
O124        O  0.66393607  0.31574195  0.64204094    -0.86500
C125        C  0.64072207  0.28797514  0.66846732     1.01100
O126        O  0.59146621  0.28432671  0.67010072    -0.79400
O127        O  0.54120025  0.22756538  0.61109195    -0.79500
C128        C  0.52168647  0.21431294  0.57715256     1.01100
Cr129      Cr  0.56545430  0.31028307  0.54002476     1.93700
Cr130      Cr  0.63079539  0.36725924  0.60480137     1.93200
Cr131      Cr  0.53452801  0.30051345  0.63065135     1.39100
O132        O  0.57721322  0.32538017  0.59274024    -1.24600
O133        O  0.03704042  0.35113932  0.92410366    -0.86800
O134        O  0.93419972  0.36779020  0.94797650    -0.83900
C135        C  0.94658408  0.41140739  0.93347546     0.96600
O136        O  0.93828784  0.41886157  0.89566493    -0.83900
O137        O  0.93876565  0.39795128  0.81181108    -0.86600
C138        C  0.98354597  0.39434914  0.79554265     1.01100
O139        O  0.01561854  0.36080287  0.80796040    -0.79300
O140        O  0.06604998  0.31023287  0.86914172    -0.79500
C141        C  0.07124389  0.34544858  0.89629917     1.01100
O142        O  0.01643023  0.24298748  0.92066444    -0.86800
O143        O  0.90859959  0.26324027  0.92913343    -0.83900
C144        C  0.86429622  0.28339587  0.92149149     0.96600
O145        O  0.86144949  0.32978767  0.90681004    -0.83900
O146        O  0.87244555  0.30936452  0.82533050    -0.86500
C147        C  0.89515278  0.28082868  0.79939757     1.01100
O148        O  0.94427133  0.27622151  0.79817821    -0.79400
O149        O  0.99437666  0.22251957  0.85841917    -0.79500
C150        C  0.01559298  0.21043900  0.89194639     1.01100
Cr151      Cr  0.97300820  0.30687255  0.92710035     1.93700
Cr152      Cr  0.90651141  0.36169728  0.86143851     1.93200
Cr153      Cr  0.00174777  0.29421841  0.83641883     1.39100
O154        O  0.96015665  0.32046921  0.87406587    -1.24600
O155        O  0.14552689  0.45446322  0.53596287    -0.86800
O156        O  0.12500804  0.55713228  0.51576280    -0.83900
C157        C  0.08089356  0.54422770  0.52927699     0.96600
O158        O  0.07178296  0.55160055  0.56691825    -0.83900
O159        O  0.09007118  0.54580113  0.65150848    -0.86600
C160        C  0.08796102  0.49766652  0.66099101     1.01100
O161        O  0.12027390  0.46652540  0.64569515    -0.79300
O162        O  0.18577469  0.42369982  0.59038157    -0.79500
C163        C  0.15167640  0.41862072  0.56247220     1.01100
O164        O  0.25338435  0.48089329  0.54781244    -0.86800
O165        O  0.22779725  0.58677538  0.53969976    -0.83900
C166        C  0.20593142  0.63007768  0.54735881     0.96600
O167        O  0.15868267  0.63062737  0.56005001    -0.83900
O168        O  0.17857314  0.61341148  0.64030821    -0.86500
C169        C  0.20076766  0.58863135  0.66880535     1.01100
O170        O  0.19989435  0.53919502  0.67100269    -0.79400
O171        O  0.26595789  0.49602518  0.61312273    -0.79500
C172        C  0.28266098  0.47943638  0.57908218     1.01100
Cr173      Cr  0.18716329  0.52053653  0.53787074     1.93700
Cr174      Cr  0.12702899  0.58184180  0.60325974     1.93200
Cr175      Cr  0.19147392  0.48491195  0.62761463     1.39100
O176        O  0.16942312  0.52953465  0.59021637    -1.24600
O177        O  0.56446333  0.63575064  0.35820891    -0.86800
O178        O  0.51099959  0.59159659  0.29533016    -0.83900
C179        C  0.48506991  0.55093079  0.28831937     0.96600
O180        O  0.44462804  0.54004581  0.30903211    -0.83900
O181        O  0.44302392  0.52481242  0.39224571    -0.86600
C182        C  0.44946115  0.53366098  0.42987812     1.01100
O183        O  0.43547418  0.57733044  0.44242373    -0.79300
O184        O  0.53778894  0.59573311  0.41526308    -0.79500
C185        C  0.57084457  0.60154351  0.38642982     1.01100
O186        O  0.49364734  0.72536266  0.35227262    -0.86800
O187        O  0.43794009  0.67417758  0.29427518    -0.83900
C188        C  0.39054809  0.66025689  0.29326379     0.96600
O189        O  0.37216981  0.62472725  0.31610002    -0.83900
O190        O  0.36188870  0.61201049  0.39881172    -0.86500
C191        C  0.36407943  0.65823200  0.41396707     1.01100
O192        O  0.40803927  0.67951304  0.42169142    -0.79400
O193        O  0.51678878  0.70251713  0.41355671    -0.79500
C194        C  0.51626377  0.73602679  0.38540028     1.01100
Cr195      Cr  0.49853267  0.65444329  0.32834518     1.93700
Cr196      Cr  0.40911179  0.57841074  0.35556187     1.93200
Cr197      Cr  0.47331691  0.63814266  0.41947365     1.39100
O198        O  0.45992173  0.62416780  0.36664840    -1.24600
O199        O  0.68917717  0.52268505  0.08640236    -0.86800
O200        O  0.62590467  0.47772356  0.14240027    -0.83900
C201        C  0.59368424  0.44611023  0.15768724     0.96600
O202        O  0.59582529  0.39809772  0.14832481    -0.83900
O203        O  0.57454181  0.39461332  0.06435157    -0.86600
C204        C  0.58242459  0.40346030  0.02665712     1.01100
O205        O  0.62585997  0.39074564  0.01201093    -0.79300
O206        O  0.64700073  0.49310709  0.03271226    -0.79500
C207        C  0.65383375  0.52825961  0.05948424     1.01100
O208        O  0.76987994  0.44906391  0.10661304    -0.86800
O209        O  0.70632551  0.40498201  0.16554720    -0.83900
C210        C  0.70761080  0.35564710  0.16299962     0.96600
O211        O  0.68423645  0.33125398  0.13493095    -0.83900
O212        O  0.66107655  0.31632690  0.05474675    -0.86500
C213        C  0.70805795  0.31738245  0.04155035     1.01100
O214        O  0.72955194  0.36096739  0.03331397    -0.79400
O215        O  0.75526370  0.46675514  0.04188032    -0.79500
C216        C  0.78556822  0.46679847  0.07253205     1.01100
Cr217      Cr  0.69629692  0.46019611  0.12281666     1.93700
Cr218      Cr  0.63113025  0.36352868  0.09915198     1.93200
Cr219      Cr  0.68877369  0.42710840  0.03293615     1.39100
O220        O  0.67291092  0.41650440  0.08556554    -1.24600
O221        O  0.68681832  0.92215456  0.37251077    -0.86800
O222        O  0.62575562  0.96875486  0.31623610    -0.83900
C223        C  0.59296940  0.00010721  0.30160763     0.96600
O224        O  0.59436683  0.04785693  0.31209358    -0.83900
O225        O  0.57474375  0.05115489  0.39651817    -0.86600
C226        C  0.58288411  0.04328072  0.43428715     1.01100
O227        O  0.62695080  0.05479251  0.44845757    -0.79300
O228        O  0.64542348  0.95168123  0.42662498    -0.79500
C229        C  0.65208853  0.91631765  0.39994408     1.01100
O230        O  0.76954537  0.99535322  0.35384162    -0.86800
O231        O  0.70719309  0.04162169  0.29513445    -0.83900
C232        C  0.70729629  0.09098256  0.29785192     0.96600
O233        O  0.68344468  0.11466576  0.32579065    -0.83900
O234        O  0.66256420  0.12848189  0.40593368    -0.86500
C235        C  0.70939718  0.12694643  0.41967130     1.01100
O236        O  0.73061037  0.08306300  0.42712254    -0.79400
O237        O  0.75387047  0.97653097  0.41810123    -0.79500
C238        C  0.78466897  0.97707179  0.38789762     1.01100
Cr239      Cr  0.69582901  0.98546362  0.33693220     1.93700
Cr240      Cr  0.63102282  0.08187958  0.36145813     1.93200
Cr241      Cr  0.68848808  0.01730856  0.42697827     1.39100
O242        O  0.67255296  0.02863294  0.37446305    -1.24600
O243        O  0.56777033  0.80611160  0.10072287    -0.86800
O244        O  0.51542443  0.85546206  0.16090795    -0.83900
C245        C  0.48606176  0.89277398  0.17011473     0.96600
O246        O  0.44273799  0.89906011  0.15190545    -0.83900
O247        O  0.44322191  0.91646397  0.06837775    -0.86600
C248        C  0.45099107  0.90841377  0.03077006     1.01100
O249        O  0.43907019  0.86449453  0.01707298    -0.79300
O250        O  0.54122437  0.84650409  0.04410705    -0.79500
C251        C  0.57454391  0.84047066  0.07278314     1.01100
O252        O  0.49606454  0.71787911  0.10950940    -0.86800
O253        O  0.44194912  0.77151970  0.16701920    -0.83900
C254        C  0.39328823  0.77956919  0.16502711     0.96600
O255        O  0.37323345  0.81167254  0.14018394    -0.83900
O256        O  0.36461323  0.82896385  0.05841383    -0.86500
C257        C  0.36685467  0.78249813  0.04408537     1.01100
O258        O  0.41092700  0.76139753  0.03725879    -0.79400
O259        O  0.51855760  0.73892228  0.04743683    -0.79500
C260        C  0.51752869  0.70607781  0.07615656     1.01100
Cr261      Cr  0.50190796  0.78985428  0.13138784     1.93700
Cr262      Cr  0.40987104  0.86130385  0.10340729     1.93200
Cr263      Cr  0.47630124  0.80350323  0.04002208     1.39100
O264        O  0.46237307  0.81772403  0.09258425    -1.24600
O265        O  0.96892531  0.63664725  0.08957518    -0.86800
O266        O  0.01564714  0.57114190  0.14301946    -0.83900
C267        C  0.04874110  0.54157086  0.15934440     0.96600
O268        O  0.09669719  0.54690270  0.15036434    -0.83900
O269        O  0.10030983  0.52771512  0.06556311    -0.86600
C270        C  0.09074433  0.53657946  0.02801520     1.01100
O271        O  0.10211086  0.58091709  0.01385887    -0.79300
O272        O  0.99974348  0.59853096  0.03471943    -0.79500
C273        C  0.96444905  0.60272883  0.06161755     1.01100
O274        O  0.04016866  0.71820607  0.11257323    -0.86800
O275        O  0.08540392  0.65285886  0.16967659    -0.83900
C276        C  0.13445395  0.65827380  0.16679072     0.96600
O277        O  0.15988150  0.63858294  0.13753473    -0.83900
O278        O  0.17585744  0.61679336  0.05657778    -0.86500
C279        C  0.17361439  0.66368787  0.04308397     1.01100
O280        O  0.12955297  0.68471813  0.03660641    -0.79400
O281        O  0.02363861  0.70707587  0.04720783    -0.79500
C282        C  0.02296044  0.73557003  0.07883758     1.01100
Cr283      Cr  0.03090957  0.64350654  0.12623440     1.93700
Cr284      Cr  0.12981750  0.58449345  0.10112374     1.93200
Cr285      Cr  0.06449534  0.64211682  0.03608744     1.39100
O286        O  0.07553010  0.62432951  0.08832199    -1.24600
O287        O  0.85258526  0.52587228  0.36226528    -0.86800
O288        O  0.91736210  0.47604252  0.30967037    -0.83900
C289        C  0.94691193  0.44156225  0.29546820     0.96600
O290        O  0.94392359  0.39507053  0.30879611    -0.83900
O291        O  0.96187155  0.39737554  0.39391541    -0.86600
C292        C  0.95227799  0.40746278  0.43114041     0.88300
O293        O  0.90763396  0.39658032  0.44462018    -0.79300
O294        O  0.88890939  0.49766038  0.41935290    -0.79500
C295        C  0.88459443  0.53222090  0.39155263     1.01100
O296        O  0.77035330  0.45401852  0.34210432    -0.86800
O297        O  0.83593202  0.40406066  0.28806430    -0.83900
C298        C  0.83348948  0.35490599  0.29245106     0.96600
O299        O  0.85393423  0.33159368  0.32266365    -0.83900
O300        O  0.87406430  0.32044145  0.40431018    -0.86500
C301        C  0.82675718  0.32213847  0.41657359     1.01100
O302        O  0.80479433  0.36614677  0.42108095    -0.79400
O303        O  0.78162128  0.47168908  0.40717476    -0.79500
C304        C  0.75310661  0.47170989  0.37554090     1.01100
Cr305      Cr  0.84540847  0.46157272  0.32842089     1.93700
Cr306      Cr  0.90632667  0.36486020  0.35868040     1.93200
Cr307      Cr  0.84653150  0.43211928  0.41991450     1.39100
O308        O  0.86518003  0.41916723  0.36837492    -1.24600
O309        O  0.97004473  0.81197960  0.37198874    -0.86800
O310        O  0.01958957  0.87664208  0.31886435    -0.83900
C311        C  0.05415672  0.90554072  0.30355359     0.96600
O312        O  0.10151075  0.89956364  0.31399633    -0.83900
O313        O  0.10334850  0.91802979  0.39914205    -0.86600
C314        C  0.09294448  0.90894968  0.43654087     1.01100
O315        O  0.10316670  0.86422992  0.45038307    -0.79300
O316        O  0.00058171  0.84885957  0.42774165    -0.79500
C317        C  0.96569655  0.84538389  0.40026516     1.01100
O318        O  0.03838403  0.72871144  0.35019424    -0.86800
O319        O  0.08761072  0.79322764  0.29399482    -0.83900
C320        C  0.13658012  0.78771789  0.29725059     0.96600
O321        O  0.16194134  0.80687562  0.32692098    -0.83900
O322        O  0.17659079  0.82722729  0.40835001    -0.86500
C323        C  0.17304420  0.77983208  0.42044902     1.01100
O324        O  0.12836540  0.75984828  0.42680101    -0.79400
O325        O  0.02197466  0.74024754  0.41552480    -0.79500
C326        C  0.02011902  0.71204416  0.38383345     1.01100
Cr327      Cr  0.03239956  0.80383759  0.33637183     1.93700
Cr328      Cr  0.13233682  0.86098770  0.36346396     1.93200
Cr329      Cr  0.06442510  0.80404162  0.42712384     1.39100
O330        O  0.07676209  0.82200917  0.37509359    -1.24600
O331        O  0.85985677  0.92230734  0.10327724    -0.86800
O332        O  0.91967881  0.97418159  0.15756457    -0.83900
C333        C  0.95042569  0.00863524  0.17040582     0.96600
O334        O  0.94740553  0.05493955  0.15670946    -0.83900
O335        O  0.96515194  0.05244095  0.07179406    -0.86600
C336        C  0.95592284  0.04297640  0.03442408     1.01100
O337        O  0.91132006  0.05362736  0.02086377    -0.79300
O338        O  0.89496992  0.95181291  0.04585101    -0.79500
C339        C  0.89191564  0.91739680  0.07386306     1.01100
O340        O  0.77328354  0.99029798  0.12082488    -0.86800
O341        O  0.83525111  0.04449695  0.17572371    -0.83900
C342        C  0.83435975  0.09377013  0.17141839     0.96600
O343        O  0.85700874  0.11703402  0.14227825    -0.83900
O344        O  0.87563245  0.12771346  0.06110940    -0.86500
C345        C  0.82828919  0.12467941  0.04879274     1.01100
O346        O  0.80739802  0.08010006  0.04384219    -0.79400
O347        O  0.78730021  0.97315834  0.05617447    -0.79500
C348        C  0.75775205  0.97167676  0.08707365     1.01100
Cr349      Cr  0.84833827  0.98642501  0.13648749     1.93700
Cr350      Cr  0.90917255  0.08414117  0.10669065     1.93200
Cr351      Cr  0.85097688  0.01570162  0.04492989     1.39100
O352        O  0.86855134  0.02905713  0.09678393    -1.24600
C353        C  0.05451049  0.93504958  0.22989786    -0.14800
C354        C  0.03810793  0.94285874  0.27072051     0.07300
C355        C  0.99755436  0.97848418  0.27801279    -0.14800
C356        C  0.97271205  0.00433979  0.24515403    -0.14800
C357        C  0.98683891  0.99401505  0.20418748     0.07300
C358        C  0.02854636  0.95972260  0.19691514    -0.14800
H359        H  0.08443677  0.90651367  0.22329613     0.11300
H360        H  0.98314991  0.98408803  0.30902831     0.11300
H361        H  0.93963789  0.02925180  0.25157295     0.11300
H362        H  0.03905464  0.94975468  0.16563281     0.11300
C363        C  0.92270382  0.60877610  0.35467327    -0.14800
C364        C  0.91885175  0.57885502  0.39101674     0.07300
C365        C  0.95155594  0.59110082  0.42440538    -0.14800
C366        C  0.98627668  0.63340823  0.42175986    -0.14800
C367        C  0.98989250  0.66304904  0.38528409     0.07300
C368        C  0.95817007  0.64997161  0.35170879    -0.14800
H369        H  0.89872803  0.59994049  0.32809686     0.11300
H370        H  0.95008468  0.56824047  0.45252119     0.11300
H371        H  0.01004911  0.64322019  0.44824157     0.11300
H372        H  0.95936377  0.67290098  0.32360039     0.11300
C373        C  0.98390633  0.81047378  0.03946152    -0.14800
C374        C  0.99577435  0.78627476  0.07734242     0.07300
C375        C  0.97508780  0.80704436  0.11367977    -0.14800
C376        C  0.94088989  0.84916183  0.11205192    -0.14800
C377        C  0.92741998  0.87221673  0.07415520     0.07300
C378        C  0.95049513  0.85364126  0.03794424    -0.14800
H379        H  0.99949601  0.79527716  0.01096763     0.11300
H380        H  0.98333518  0.78921519  0.14328559     0.11300
H381        H  0.92487330  0.86369105  0.14062554     0.11300
H382        H  0.94167099  0.87159020  0.00849263     0.11300
C383        C  0.16515198  0.66932994  0.23815223    -0.14800
C384        C  0.16037860  0.68962832  0.19818521     0.07300
C385        C  0.16357621  0.74368225  0.19173996    -0.14800
C386        C  0.16416854  0.77738645  0.22536817    -0.14800
C387        C  0.16233964  0.75708005  0.26548773     0.07300
C388        C  0.16667251  0.70307308  0.27178827    -0.14800
H389        H  0.16157288  0.62768807  0.24357694     0.11300
H390        H  0.15875277  0.75986677  0.16108042     0.11300
H391        H  0.15960148  0.81893731  0.22006629     0.11300
H392        H  0.16406639  0.68683427  0.30259484     0.11300
C393        C  0.03087874  0.47366928  0.26285417    -0.14800
C394        C  0.97927591  0.45536651  0.25915262     0.07300
C395        C  0.95448758  0.45879981  0.22069385    -0.14800
C396        C  0.97930113  0.48283124  0.18722742    -0.14800
C397        C  0.02974930  0.50403813  0.19121696     0.07300
C398        C  0.05616154  0.49743061  0.22896565    -0.14800
H399        H  0.05041441  0.47233765  0.29243123     0.11300
H400        H  0.91449454  0.44560210  0.21720060     0.11300
H401        H  0.95781528  0.48747416  0.15870951     0.11300
H402        H  0.09460114  0.51426560  0.23322622     0.11300
C403        C  0.31796264  0.69802614  0.03252235    -0.14800
C404        C  0.31741325  0.75274435  0.03662653     0.07300
C405        C  0.26869213  0.77796172  0.03800154    -0.14800
C406        C  0.22198342  0.74913967  0.03747434    -0.14800
C407        C  0.22267263  0.69421910  0.03630533     0.07300
C408        C  0.27122972  0.66911771  0.03274293    -0.14800
H409        H  0.35465560  0.67723096  0.03119184     0.11300
H410        H  0.26663371  0.82001185  0.04090162     0.11300
H411        H  0.18535191  0.76980802  0.04018421     0.11300
H412        H  0.27318753  0.62693818  0.03133178     0.11300
C413        C  0.64383145  0.88411829  0.11440983    -0.14800
C414        C  0.62090720  0.87501528  0.07564783     0.07300
C415        C  0.64063619  0.90171631  0.04116505    -0.14800
C416        C  0.68401508  0.93485181  0.04515350    -0.14800
C417        C  0.70747343  0.94316675  0.08386726     0.07300
C418        C  0.68624927  0.91817136  0.11854545    -0.14800
H419        H  0.62870604  0.86506748  0.14178311     0.11300
H420        H  0.62319707  0.89622220  0.01110084     0.11300
H421        H  0.69971017  0.95350148  0.01781245     0.11300
H422        H  0.70372780  0.92329910  0.14863786     0.11300
C423        C  0.79438368  0.17677549  0.42696730    -0.14800
C424        C  0.73940069  0.17674919  0.42570686     0.07300
C425        C  0.71375791  0.22530102  0.42610831    -0.14800
C426        C  0.74214832  0.27240369  0.42574865    -0.14800
C427        C  0.79707991  0.27243364  0.42422329     0.07300
C428        C  0.82279801  0.22390531  0.42590444    -0.14800
H429        H  0.81558767  0.14026019  0.42674136     0.11300
H430        H  0.67154478  0.22693496  0.42545979     0.11300
H431        H  0.72089161  0.30886699  0.42460891     0.11300
H432        H  0.86500135  0.22226361  0.42508774     0.11300
C433        C  0.85765606  0.92806225  0.35618989    -0.14800
C434        C  0.83540279  0.95008949  0.39139472     0.07300
C435        C  0.85801998  0.93955454  0.43015538    -0.14800
C436        C  0.90128444  0.90631299  0.43358739    -0.14800
C437        C  0.92121024  0.88181302  0.39845159     0.07300
C438        C  0.89954573  0.89385095  0.35974096    -0.14800
H439        H  0.84098837  0.93509397  0.32599919     0.11300
H440        H  0.84151522  0.95610466  0.45783700     0.11300
H441        H  0.91799310  0.89848853  0.46363413     0.11300
H442        H  0.91484312  0.87650087  0.33194114     0.11300
C443        C  0.71689190  0.12518098  0.22787801    -0.14800
C444        C  0.73719083  0.12011000  0.26768449     0.07300
C445        C  0.79085504  0.12560330  0.27460959    -0.14800
C446        C  0.82478760  0.12683890  0.24121546    -0.14800
C447        C  0.80463965  0.12302994  0.20127612     0.07300
C448        C  0.75083043  0.12717380  0.19449377    -0.14800
H449        H  0.67543754  0.12033995  0.22233669     0.11300
H450        H  0.80677141  0.12113673  0.30535531     0.11300
H451        H  0.86634559  0.12293946  0.24668426     0.11300
H452        H  0.73500079  0.12357781  0.16367051     0.11300
C453        C  0.53743812  0.00612360  0.23598521    -0.14800
C454        C  0.55480466  0.97837238  0.27110101     0.07300
C455        C  0.54245042  0.92494967  0.27397058    -0.14800
C456        C  0.51728409  0.89901273  0.24189725    -0.14800
C457        C  0.50271295  0.92541708  0.20575876     0.07300
C458        C  0.51144832  0.97977317  0.20347288    -0.14800
H459        H  0.54686219  0.04715035  0.23249405     0.11300
H460        H  0.55471564  0.90227560  0.30047456     0.11300
H461        H  0.51108635  0.85724931  0.24465183     0.11300
H462        H  0.50121781  0.00106313  0.17574822     0.11300
C463        C  0.82244301  0.22252928  0.03958467    -0.14800
C464        C  0.79753620  0.17349979  0.04116800     0.07300
C465        C  0.74258654  0.17220687  0.03905030    -0.14800
C466        C  0.71341801  0.21868998  0.03763511    -0.14800
C467        C  0.73839458  0.26775355  0.03749051     0.07300
C468        C  0.79335436  0.26888633  0.03743697    -0.14800
H469        H  0.86459751  0.22519472  0.04100316     0.11300
H470        H  0.72196493  0.13526643  0.04022358     0.11300
H471        H  0.67121633  0.21622802  0.03756951     0.11300
H472        H  0.81402061  0.30582777  0.03750028     0.11300
C473        C  0.86040745  0.50372827  0.03151588    -0.14800
C474        C  0.83595926  0.49476605  0.06974682     0.07300
C475        C  0.85537883  0.51998996  0.10477357    -0.14800
C476        C  0.89619387  0.55576388  0.10139985    -0.14800
C477        C  0.91983341  0.56605655  0.06316605     0.07300
C478        C  0.90270409  0.53849519  0.02837787    -0.14800
H479        H  0.84606934  0.48474373  0.00398254     0.11300
H480        H  0.83716845  0.51426032  0.13453973     0.11300
H481        H  0.90932954  0.57541878  0.12900282     0.11300
H482        H  0.92102955  0.54484887  0.99874505     0.11300
C483        C  0.79250894  0.32592885  0.18745704    -0.14800
C484        C  0.73845022  0.32779627  0.19350243     0.07300
C485        C  0.71776680  0.32074142  0.23301280    -0.14800
C486        C  0.75116166  0.31951180  0.26694476    -0.14800
C487        C  0.80495015  0.32624440  0.26116515     0.07300
C488        C  0.82582519  0.32540647  0.22136163    -0.14800
H489        H  0.80882267  0.33230815  0.15707310     0.11300
H490        H  0.67602663  0.32313746  0.23801897     0.11300
H491        H  0.73458889  0.32121779  0.29757900     0.11300
H492        H  0.86723956  0.33171049  0.21657177     0.11300
C493        C  0.61602035  0.60164474  0.09952223    -0.14800
C494        C  0.61873105  0.57407999  0.06219569     0.07300
C495        C  0.58458042  0.58800581  0.03007346    -0.14800
C496        C  0.54992875  0.62997254  0.03481524    -0.14800
C497        C  0.54759507  0.65727876  0.07226519     0.07300
C498        C  0.58041296  0.64215548  0.10467255    -0.14800
H499        H  0.64098905  0.59138819  0.12522837     0.11300
H500        H  0.58517543  0.56697823  0.00123252     0.11300
H501        H  0.52522472  0.64134639  0.00924143     0.11300
H502        H  0.58005317  0.66315057  0.13355726     0.11300
C503        C  0.26553877  0.66382056  0.41701755    -0.14800
C504        C  0.31472821  0.68774108  0.42187366     0.07300
C505        C  0.31620736  0.74155901  0.43064015    -0.14800
C506        C  0.27014146  0.77114544  0.43196724    -0.14800
C507        C  0.22119523  0.74759597  0.42539444     0.07300
C508        C  0.21940839  0.69326650  0.41912069    -0.14800
H509        H  0.26270235  0.62254952  0.41027639     0.11300
H510        H  0.35321893  0.76141260  0.43472818     0.11300
H511        H  0.27292610  0.81279844  0.43713240     0.11300
H512        H  0.18241856  0.67389408  0.41366171     0.11300
C513        C  0.64142848  0.55926755  0.34592117    -0.14800
C514        C  0.61656120  0.56672496  0.38403714     0.07300
C515        C  0.63343219  0.53783097  0.41836270    -0.14800
C516        C  0.67632924  0.50443866  0.41511152    -0.14800
C517        C  0.70224711  0.49843874  0.37726857     0.07300
C518        C  0.68354727  0.52514230  0.34249616    -0.14800
H519        H  0.62831672  0.57987116  0.31861792     0.11300
H520        H  0.61424088  0.54192063  0.44786065     0.11300
H521        H  0.69005903  0.48422275  0.44240660     0.11300
H522        H  0.70306108  0.52163216  0.31307525     0.11300
C523        C  0.55106091  0.81157323  0.42695968    -0.14800
C524        C  0.54760721  0.78435443  0.38948937     0.07300
C525        C  0.57943910  0.79996904  0.35660998    -0.14800
C526        C  0.61457876  0.84130070  0.36107149    -0.14800
C527        C  0.61782494  0.86935882  0.39816820     0.07300
C528        C  0.58512457  0.85448503  0.43100126    -0.14800
H529        H  0.52725291  0.79979531  0.45294306     0.11300
H530        H  0.57834465  0.77904088  0.32770805     0.11300
H531        H  0.63855074  0.85199749  0.33489982     0.11300
H532        H  0.58618254  0.87569181  0.45975213     0.11300
C533        C  0.34965262  0.73962194  0.26686699    -0.14800
C534        C  0.35790281  0.68584479  0.26256345     0.07300
C535        C  0.35680520  0.66354360  0.22328623    -0.14800
C536        C  0.35850909  0.69582721  0.18863736    -0.14800
C537        C  0.36062463  0.75012805  0.19351901     0.07300
C538        C  0.35094497  0.77191707  0.23217925    -0.14800
H539        H  0.35088168  0.75732280  0.29708492     0.11300
H540        H  0.36376770  0.62212461  0.21951278     0.11300
H541        H  0.36638598  0.67858386  0.15888973     0.11300
H542        H  0.35297767  0.81382385  0.23636407     0.11300
C543        C  0.51403848  0.54484369  0.21584771    -0.14800
C544        C  0.50240965  0.51874386  0.25285970     0.07300
C545        C  0.51438201  0.46526056  0.25616947    -0.14800
C546        C  0.54082584  0.43959637  0.22386664    -0.14800
C547        C  0.55546829  0.46716543  0.18795631     0.07300
C548        C  0.53992213  0.51949770  0.18393538    -0.14800
H549        H  0.50506540  0.58594929  0.21230347     0.11300
H550        H  0.50637112  0.44434927  0.28453546     0.11300
H551        H  0.55280782  0.39941684  0.22808647     0.11300
H552        H  0.55011066  0.54178380  0.15666464     0.11300
C553        C  0.00263460  0.48673038  0.52075892    -0.14800
C554        C  0.04559170  0.51260041  0.50325246     0.07300
C555        C  0.05941220  0.50128798  0.46230772    -0.14800
C556        C  0.03088878  0.46495771  0.43936135    -0.14800
C557        C  0.98790614  0.43912934  0.45689252     0.07300
C558        C  0.97417382  0.45042952  0.49785263    -0.14800
H559        H  0.99168729  0.49367465  0.55241657     0.11300
H560        H  0.09289127  0.52000897  0.44809957     0.11300
H561        H  0.04173022  0.45799538  0.40768547     0.11300
H562        H  0.94075007  0.43169846  0.51214012     0.11300
C563        C  0.04849336  0.51248007  0.96121975    -0.14800
C564        C  0.05756634  0.50125052  0.00311308     0.07300
C565        C  0.02746707  0.46228616  0.02231506    -0.14800
C566        C  0.98918902  0.43530541  0.00014163    -0.14800
C567        C  0.98008938  0.44657109  0.95824360     0.07300
C568        C  0.01024537  0.48545380  0.93903046    -0.14800
H569        H  0.07056935  0.54284353  0.94564424     0.11300
H570        H  0.03242835  0.45369801  0.05473722     0.11300
H571        H  0.96707485  0.40499015  0.01575504     0.11300
H572        H  0.00522479  0.49406332  0.90661581     0.11300
C573        C  0.01138316  0.39811298  0.72270810    -0.14800
C574        C  0.99874937  0.42546184  0.75866090     0.07300
C575        C  0.00889681  0.47946300  0.75998894    -0.14800
C576        C  0.03436059  0.50471148  0.72672886    -0.14800
C577        C  0.05015562  0.47618727  0.69185518     0.07300
C578        C  0.03645192  0.42304082  0.68982717    -0.14800
H579        H  0.00410977  0.35647753  0.72088379     0.11300
H580        H  0.00023051  0.50128829  0.78760062     0.11300
H581        H  0.04486454  0.54552323  0.72950748     0.11300
H582        H  0.04757819  0.39989530  0.66347897     0.11300
C583        C  0.55147524  0.43576981  0.46319894    -0.14800
C584        C  0.55883788  0.44866318  0.50493787     0.07300
C585        C  0.52749569  0.48761856  0.52224636    -0.14800
C586        C  0.48982594  0.51314932  0.49830219    -0.14800
C587        C  0.48254224  0.50025005  0.45655837     0.07300
C588        C  0.51376417  0.46117029  0.43931755    -0.14800
H589        H  0.57448799  0.40533097  0.44904080     0.11300
H590        H  0.53111991  0.49739204  0.55451343     0.11300
H591        H  0.46674290  0.54357782  0.51239462     0.11300
H592        H  0.51005154  0.45119532  0.40709497     0.11300
C593        C  0.39428396  0.39088976  0.60794633    -0.14800
C594        C  0.41988158  0.38371474  0.57007328     0.07300
C595        C  0.40276026  0.41234025  0.53562191    -0.14800
C596        C  0.35928578  0.44544897  0.53871331    -0.14800
C597        C  0.33327840  0.45171281  0.57659402     0.07300
C598        C  0.35197629  0.42479243  0.61125236    -0.14800
H599        H  0.40712549  0.37032633  0.63534223     0.11300
H600        H  0.42221622  0.40828267  0.50622824     0.11300
H601        H  0.34548753  0.46554685  0.51139570     0.11300
H602        H  0.33244126  0.42815575  0.64068443     0.11300
C603        C  0.47847394  0.50215558  0.99910086    -0.14800
C604        C  0.49005186  0.51290344  0.95754698     0.07300
C605        C  0.53070613  0.48551462  0.93856937    -0.14800
C606        C  0.55883445  0.44789854  0.96054173    -0.14800
C607        C  0.54703660  0.43685258  0.00200876     0.07300
C608        C  0.50666966  0.46458724  0.02110140    -0.14800
H609        H  0.44691810  0.52222519  0.01448787     0.11300
H610        H  0.53980828  0.49204269  0.90640483     0.11300
H611        H  0.59034702  0.42782265  0.94512138     0.11300
H612        H  0.49756699  0.45803824  0.05325677     0.11300
C613        C  0.24472950  0.62112254  0.77307989    -0.14800
C614        C  0.29860929  0.62045251  0.76589999     0.07300
C615        C  0.31786773  0.62633688  0.72585604    -0.14800
C616        C  0.28344318  0.62470585  0.69269596    -0.14800
C617        C  0.23018660  0.61644692  0.69987480     0.07300
C618        C  0.21037446  0.61843696  0.73993139    -0.14800
H619        H  0.22962403  0.61569265  0.80396932     0.11300
H620        H  0.35947782  0.62487223  0.72005177     0.11300
H621        H  0.29902491  0.62243906  0.66174992     0.11300
H622        H  0.16930495  0.61129874  0.74567690     0.11300
C623        C  0.18267238  0.42392209  0.85111223    -0.14800
C624        C  0.20241742  0.45015070  0.88558828     0.07300
C625        C  0.17747027  0.44326700  0.92386674    -0.14800
C626        C  0.13441129  0.40963840  0.92770397    -0.14800
C627        C  0.11663711  0.38119061  0.89357643     0.07300
C628        C  0.14067070  0.38945068  0.85515044    -0.14800
H629        H  0.20132084  0.42805170  0.82135185     0.11300
H630        H  0.19198560  0.46306107  0.95097726     0.11300
H631        H  0.11590961  0.40488800  0.95745996     0.11300
H632        H  0.12696808  0.36915470  0.82801053     0.11300
C633        C  0.50650951  0.43643342  0.77486150    -0.14800
C634        C  0.48493465  0.48641942  0.76946981     0.07300
C635        C  0.49256550  0.51208793  0.73144043    -0.14800
C636        C  0.51811456  0.48654619  0.69870139    -0.14800
C637        C  0.53696376  0.43534986  0.70380453     0.07300
C638        C  0.53213010  0.41133652  0.74254526    -0.14800
H639        H  0.50099085  0.41546354  0.80359288     0.11300
H640        H  0.47537629  0.55008915  0.72605170     0.11300
H641        H  0.52030466  0.50543337  0.66884393     0.11300
H642        H  0.54563835  0.37166928  0.74712110     0.11300
C643        C  0.76820184  0.17241735  0.53678810    -0.14800
C644        C  0.81751457  0.19658538  0.53924107     0.07300
C645        C  0.81933810  0.25154005  0.54089702    -0.14800
C646        C  0.77320225  0.28121373  0.54209706    -0.14800
C647        C  0.72379667  0.25693361  0.54087643     0.07300
C648        C  0.72208553  0.20214464  0.53718125    -0.14800
H649        H  0.76519015  0.13026757  0.53540965     0.11300
H650        H  0.85649697  0.27157898  0.54313519     0.11300
H651        H  0.77626407  0.32322534  0.54495456     0.11300
H652        H  0.68493708  0.18193977  0.53625500     0.11300
C653        C  0.99686959  0.01525870  0.46486927    -0.14800
C654        C  0.98402394  0.00193830  0.50579404     0.07300
C655        C  0.01006738  0.95979497  0.52439568    -0.14800
C656        C  0.04768323  0.93158932  0.50256398    -0.14800
C657        C  0.06034845  0.94477785  0.46156949     0.07300
C658        C  0.03450944  0.98708502  0.44304920    -0.14800
H659        H  0.97818853  0.04806474  0.44973830     0.11300
H660        H  0.00208390  0.94919909  0.55606996     0.11300
H661        H  0.06626990  0.89869823  0.51765233     0.11300
H662        H  0.04235969  0.99758198  0.41133553     0.11300
C663        C  0.07579018  0.30495320  0.60574996    -0.14800
C664        C  0.04726613  0.28759333  0.57168086     0.07300
C665        C  0.05321520  0.31348386  0.53360203    -0.14800
C666        C  0.08713644  0.35643248  0.52994897    -0.14800
C667        C  0.11707826  0.37241403  0.56392260     0.07300
C668        C  0.11083736  0.34621643  0.60176198    -0.14800
H669        H  0.07260942  0.28518792  0.63522147     0.11300
H670        H  0.03183255  0.30034264  0.50677430     0.11300
H671        H  0.09054919  0.37651240  0.50064236     0.11300
H672        H  0.13260377  0.35811344  0.62876233     0.11300
C673        C  0.86343938  0.16699623  0.73662185    -0.14800
C674        C  0.86648693  0.19072645  0.69773053     0.07300
C675        C  0.86047262  0.24493125  0.69415612    -0.14800
C676        C  0.85983457  0.27573935  0.72949688    -0.14800
C677        C  0.86560739  0.25231113  0.76831394     0.07300
C678        C  0.86314970  0.19780114  0.77193796    -0.14800
H679        H  0.86910935  0.12526042  0.73985865     0.11300
H680        H  0.86378198  0.26382239  0.66434190     0.11300
H681        H  0.86275967  0.31777328  0.72619377     0.11300
H682        H  0.86859239  0.17918811  0.80166815     0.11300
C683        C  0.29173121  0.77239533  0.92648025    -0.14800
C684        C  0.23678669  0.77118154  0.92471416     0.07300
C685        C  0.21188832  0.72211138  0.92430357    -0.14800
C686        C  0.24110663  0.67570490  0.92427760    -0.14800
C687        C  0.29609019  0.67700308  0.92390498     0.07300
C688        C  0.32095121  0.72602883  0.92567568    -0.14800
H689        H  0.31235164  0.80937323  0.92675725     0.11300
H690        H  0.16973331  0.71956072  0.92304775     0.11300
H691        H  0.22054005  0.63874589  0.92280249     0.11300
H692        H  0.36313370  0.72862515  0.92558949     0.11300
C693        C  0.00946480  0.97067358  0.94270001    -0.14800
C694        C  0.04478346  0.93610517  0.96143979     0.07300
C695        C  0.05302564  0.93943390  0.00419549    -0.14800
C696        C  0.02649162  0.97643233  0.02772607    -0.14800
C697        C  0.99117146  0.01096786  0.00896030     0.07300
C698        C  0.98292208  0.00763274  0.96622559    -0.14800
H699        H  0.00351590  0.97020666  0.90970114     0.11300
H700        H  0.08054241  0.91369447  0.01942982     0.11300
H701        H  0.03237495  0.97691515  0.06073209     0.11300
H702        H  0.95538065  0.03335895  0.95100325     0.11300
C703        C  0.03822146  0.94146043  0.73625767    -0.14800
C704        C  0.04973962  0.96916480  0.77260789     0.07300
C705        C  0.03234050  0.02100659  0.77570466    -0.14800
C706        C  0.00770902  0.04580644  0.74256607    -0.14800
C707        C  0.99936309  0.01957452  0.70529802     0.07300
C708        C  0.01334790  0.96659939  0.70271553    -0.14800
H709        H  0.05178701  0.90174760  0.73266651     0.11300
H710        H  0.04031746  0.04343294  0.80318811     0.11300
H711        H  0.99756654  0.08669553  0.74529627     0.11300
H712        H  0.00810973  0.94576798  0.67406881     0.11300
C713        C  0.10489856  0.10077618  0.86403420    -0.14800
C714        C  0.11457742  0.07679201  0.90228293     0.07300
C715        C  0.08843266  0.09490796  0.93735522    -0.14800
C716        C  0.05474159  0.13786587  0.93421825    -0.14800
C717        C  0.04531213  0.16157091  0.89571309     0.07300
C718        C  0.07006993  0.14201425  0.86067876    -0.14800
H719        H  0.12385469  0.08720927  0.83631326     0.11300
H720        H  0.09471171  0.07652812  0.96705155     0.11300
H721        H  0.03626430  0.15268581  0.96173630     0.11300
H722        H  0.06414980  0.16000420  0.83077223     0.11300
C723        C  0.24054581  0.77549410  0.54333541    -0.14800
C724        C  0.29553450  0.77442965  0.54259309     0.07300
C725        C  0.32025009  0.72555342  0.54049347    -0.14800
C726        C  0.29097512  0.67909002  0.54005702    -0.14800
C727        C  0.23608479  0.67996585  0.54253103     0.07300
C728        C  0.21124349  0.72890792  0.54370320    -0.14800
H729        H  0.22014481  0.81236886  0.54527195     0.11300
H730        H  0.36242494  0.72314772  0.53987914     0.11300
H731        H  0.31159136  0.64225462  0.53933647     0.11300
H732        H  0.16913563  0.73121038  0.54570010     0.11300
C733        C  0.47731989  0.94785719  0.46408826    -0.14800
C734        C  0.48988144  0.93750712  0.50553085     0.07300
C735        C  0.53081313  0.96532802  0.52401795    -0.14800
C736        C  0.55886448  0.00239039  0.50141555    -0.14800
C737        C  0.54668494  0.01227575  0.45984271     0.07300
C738        C  0.50539037  0.98489536  0.44147675    -0.14800
H739        H  0.44523914  0.92770839  0.44919678     0.11300
H740        H  0.54038894  0.95932749  0.55615746     0.11300
H741        H  0.59091954  0.02257169  0.51631860     0.11300
H742        H  0.49578640  0.99092743  0.40934601     0.11300
C743        C  0.18389618  0.02435800  0.61331459    -0.14800
C744        C  0.20482553  0.00092563  0.57813945     0.07300
C745        C  0.18083558  0.00987056  0.53970558    -0.14800
C746        C  0.13766811  0.04306883  0.53642947    -0.14800
C747        C  0.11889670  0.06894473  0.57136415     0.07300
C748        C  0.14177868  0.05841157  0.60988689    -0.14800
H749        H  0.20167551  0.01844328  0.64323694     0.11300
H750        H  0.19623786  0.99215204  0.51205987     0.11300
H751        H  0.11990609  0.04956335  0.50657562     0.11300
H752        H  0.12709850  0.07663426  0.63757534     0.11300
C753        C  0.25160873  0.82670357  0.69553626    -0.14800
C754        C  0.30469599  0.83682805  0.70227902     0.07300
C755        C  0.32440291  0.83877118  0.74242781    -0.14800
C756        C  0.29017991  0.83766378  0.77561249    -0.14800
C757        C  0.23630125  0.83559376  0.76850663     0.07300
C758        C  0.21719128  0.82659369  0.72876422    -0.14800
H759        H  0.23598996  0.82617149  0.66452172     0.11300
H760        H  0.36525089  0.84758079  0.74784534     0.11300
H761        H  0.30516880  0.84567474  0.80616153     0.11300
H762        H  0.17553033  0.82608228  0.72293395     0.11300
C763        C  0.44989397  0.09836944  0.53074785    -0.14800
C764        C  0.42349485  0.07898379  0.56548922     0.07300
C765        C  0.43317702  0.10196256  0.60402470    -0.14800
C766        C  0.46777867  0.14365095  0.60791412    -0.14800
C767        C  0.49254943  0.16466150  0.57317792     0.07300
C768        C  0.48344362  0.14164496  0.53445135    -0.14800
H769        H  0.44373678  0.08089822  0.50082313     0.11300
H770        H  0.41415395  0.08742638  0.63155871     0.11300
H771        H  0.47340794  0.16089007  0.63799610     0.11300
H772        H  0.50188579  0.15742650  0.50709213     0.11300
C773        C  0.76954806  0.16883111  0.92802389    -0.14800
C774        C  0.72079750  0.19409783  0.92796488     0.07300
C775        C  0.72007767  0.24892360  0.93052552    -0.14800
C776        C  0.76671462  0.27782957  0.93036226    -0.14800
C777        C  0.81539805  0.25270817  0.92839615     0.07300
C778        C  0.81624516  0.19774800  0.92859024    -0.14800
H779        H  0.77164973  0.12667708  0.92626996     0.11300
H780        H  0.68335915  0.26974002  0.93065055     0.11300
H781        H  0.76459833  0.32005045  0.93058009     0.11300
H782        H  0.85299269  0.17708781  0.92700823     0.11300
C783        C  0.54584049  0.01440175  0.00050033    -0.14800
C784        C  0.55603884  0.00200324  0.95910758     0.07300
C785        C  0.52895532  0.96042936  0.94091288    -0.14800
C786        C  0.49244740  0.93186060  0.96369572    -0.14800
C787        C  0.48234087  0.94427143  0.00510317     0.07300
C788        C  0.50931547  0.98592345  0.02323278    -0.14800
H789        H  0.56557614  0.04680485  0.01524262     0.11300
H790        H  0.53504408  0.95079845  0.90887491     0.11300
H791        H  0.47268993  0.89941332  0.94902379     0.11300
H792        H  0.50319312  0.99566929  0.05524899     0.11300
C793        C  0.35122174  0.02494218  0.85396392    -0.14800
C794        C  0.33029522  0.00208092  0.88964189     0.07300
C795        C  0.35353179  0.01323340  0.92797003    -0.14800
C796        C  0.39669419  0.04690154  0.93046601    -0.14800
C797        C  0.41615342  0.07123554  0.89481904     0.07300
C798        C  0.39321805  0.05951830  0.85658402    -0.14800
H799        H  0.33386640  0.01769927  0.82409797     0.11300
H800        H  0.33791547  0.99640686  0.95604377     0.11300
H801        H  0.41421396  0.05460568  0.96019585     0.11300
H802        H  0.40810949  0.07679278  0.82842558     0.11300
C803        C  0.67203414  0.17032812  0.72694449    -0.14800
C804        C  0.66973945  0.19134442  0.76659761     0.07300
C805        C  0.67659912  0.24512818  0.77221570    -0.14800
C806        C  0.67653178  0.27845636  0.73809898    -0.14800
C807        C  0.67007230  0.25771422  0.69859195     0.07300
C808        C  0.67235257  0.20358722  0.69287226    -0.14800
H809        H  0.66593810  0.12888538  0.72225700     0.11300
H810        H  0.67407621  0.26180018  0.80275095     0.11300
H811        H  0.67389214  0.32019106  0.74293372     0.11300
H812        H  0.66655919  0.18714156  0.66251955     0.11300
C813        C  0.48537337  0.31417242  0.92505316    -0.14800
C814        C  0.49159535  0.28867259  0.88703213     0.07300
C815        C  0.46359870  0.30678408  0.85277309    -0.14800
C816        C  0.42855870  0.34804493  0.85666404    -0.14800
C817        C  0.42157315  0.37322977  0.89469284     0.07300
C818        C  0.45130787  0.35674168  0.92867217    -0.14800
H819        H  0.50634291  0.30072155  0.95201706     0.11300
H820        H  0.46701699  0.28750475  0.82325969     0.11300
H821        H  0.40715019  0.36052147  0.82962169     0.11300
H822        H  0.44747770  0.37605404  0.95813355     0.11300
C823        C  0.51157644  0.96772824  0.76755290    -0.14800
C824        C  0.53754731  0.01572006  0.76209623     0.07300
C825        C  0.53963894  0.03762380  0.72238893    -0.14800
C826        C  0.51396580  0.01371671  0.68924920    -0.14800
C827        C  0.48631907  0.96669356  0.69478590     0.07300
C828        C  0.48680854  0.94303374  0.73403593    -0.14800
H829        H  0.50804011  0.95085224  0.79806117     0.11300
H830        H  0.55827363  0.07520962  0.71756641     0.11300
H831        H  0.51353286  0.03332815  0.65961559     0.11300
H832        H  0.46462616  0.90758813  0.73948597     0.11300
loop_ 
_geom_bond_atom_site_label_1 
_geom_bond_atom_site_label_2 
_geom_bond_distance 
_geom_bond_site_symmetry_2 
_ccdc_geom_bond_type 
O1          Cr19   1.995       .  S
O1            C9   1.267       .  A
O2          Cr19   1.978       .  S
O2            C3   1.253       .  A
C3            O4   1.261       .  A
C3          C784   1.475       .  S
O4          Cr20   2.003       .  S
O5          Cr20   2.034       .  S
O5            C6   1.267       .  A
C6            O7   1.254       .  A
C6          C824   1.485       .  S
O7          Cr21   1.975       .  S
O8          Cr21   1.995       .  S
O8            C9   1.268       .  A
C9          C797   1.478       .  S
O10         Cr19   1.995       .  S
O10          C18   1.258       .  A
O11         Cr19   1.991       .  S
O11          C12   1.271       .  A
C12          O13   1.277       .  A
C12         C774   1.494       .  S
O13         Cr20   2.035       .  S
O14         Cr20   1.971       .  S
O14          C15   1.259       .  A
C15          O16   1.268       .  A
C15         C804   1.454       .  S
O16         Cr21   1.993       .  S
O17         Cr21   1.986       .  S
O17          C18   1.260       .  A
C18         C814   1.479       .  S
Cr19         O22   1.779       .  S
Cr20         O22   1.782       .  S
Cr21         O22   1.762       .  S
O23         Cr41   2.008       .  S
O23          C31   1.267   1_565  A
O24         Cr41   1.978       .  S
O24          C25   1.255       .  A
C25          O26   1.261       .  A
C25         C734   1.475       .  S
O26         Cr42   1.999       .  S
O27         Cr42   2.044       .  S
O27          C28   1.270       .  A
C28          O29   1.256       .  A
C28         C827   1.490       .  S
O29         Cr43   1.977       .  S
O30         Cr43   1.989   1_545  S
O30          C31   1.264       .  A
C31         C764   1.480       .  S
O32         Cr41   1.995       .  S
O32          C40   1.262       .  A
O33         Cr41   1.995       .  S
O33          C34   1.270       .  A
C34          O35   1.278       .  A
C34         C724   1.497       .  S
O35         Cr42   2.036       .  S
O36         Cr42   1.967       .  S
O36          C37   1.257       .  A
C37          O38   1.267       .  A
C37         C754   1.450       .  S
O38         Cr43   1.995       .  S
O39         Cr43   1.982       .  S
O39          C40   1.262       .  A
C40         C744   1.475   1_565  S
Cr41         O44   1.775       .  S
Cr42         O44   1.776       .  S
Cr43         O44   1.755       .  S
O45         Cr63   1.997       .  S
O45          C53   1.265   1_565  A
O46         Cr63   1.983       .  S
O46          C47   1.256       .  A
C47          O48   1.262       .  A
C47         C694   1.479       .  S
O48         Cr64   2.004       .  S
O49         Cr64   2.045       .  S
O49          C50   1.270       .  A
C50          O51   1.256       .  A
C50         C704   1.494       .  S
O51         Cr65   1.971       .  S
O52         Cr65   1.988   1_545  S
O52          C53   1.265       .  A
C53         C714   1.473       .  S
O54         Cr63   2.001       .  S
O54          C62   1.262       .  A
O55         Cr63   1.991       .  S
O55          C56   1.270       .  A
C56          O57   1.279       .  A
C56         C684   1.498       .  S
O57         Cr64   2.040       .  S
O58         Cr64   1.969       .  S
O58          C59   1.258       .  A
C59          O60   1.267       .  A
C59         C757   1.450       .  S
O60         Cr65   1.992       .  S
O61         Cr65   1.980       .  S
O61          C62   1.261       .  A
C62         C794   1.479   1_565  S
Cr63         O66   1.777       .  S
Cr64         O66   1.779       .  S
Cr65         O66   1.756       .  S
O67         Cr85   1.989   1_455  S
O67          C75   1.268       .  A
O68         Cr85   1.980       .  S
O68          C69   1.253       .  A
C69          O70   1.260       .  A
C69         C654   1.489       .  S
O70         Cr86   2.015       .  S
O71         Cr86   2.029       .  S
O71          C72   1.267       .  A
C72          O73   1.255   1_655  A
C72         C707   1.486       .  S
O73         Cr87   1.970       .  S
O74         Cr87   1.999       .  S
O74          C75   1.271       .  A
C75         C747   1.475       .  S
O76         Cr85   1.991   1_455  S
O76          C84   1.254       .  A
O77         Cr85   1.993       .  S
O77          C78   1.271       .  A
C78          O79   1.281       .  A
C78         C644   1.500       .  S
O79         Cr86   2.043       .  S
O80         Cr86   1.983       .  S
O80          C81   1.262       .  A
C81          O82   1.266       .  A
C81         C674   1.458       .  S
O82         Cr87   1.982   1_655  S
O83         Cr87   1.981   1_655  S
O83          C84   1.256   1_655  A
C84         C664   1.473       .  S
Cr85         O88   1.786       .  S
Cr86         O88   1.784       .  S
Cr87         O88   1.763   1_455  S
O89        Cr107   2.003       .  S
O89          C97   1.267       .  A
O90        Cr107   1.982       .  S
O90          C91   1.255       .  A
C91          O92   1.261       .  A
C91         C604   1.478       .  S
O92        Cr108   2.001       .  S
O93        Cr108   2.046       .  S
O93          C94   1.270       .  A
C94          O95   1.254       .  A
C94         C634   1.492       .  S
O95        Cr109   1.968       .  S
O96        Cr109   1.991       .  S
O96          C97   1.265       .  A
C97         C817   1.482       .  S
O98        Cr107   1.999       .  S
O98         C106   1.262       .  A
O99        Cr107   1.994       .  S
O99         C100   1.270       .  A
C100        O101   1.279       .  A
C100        C687   1.498       .  S
O101       Cr108   2.039       .  S
O102       Cr108   1.964       .  S
O102        C103   1.257       .  A
C103        O104   1.267       .  A
C103        C614   1.447       .  S
O104       Cr109   1.992       .  S
O105       Cr109   1.985       .  S
O105        C106   1.261       .  A
C106        C624   1.479       .  S
Cr107       O110   1.774       .  S
Cr108       O110   1.780       .  S
Cr109       O110   1.758       .  S
O111       Cr129   2.004       .  S
O111        C119   1.270       .  A
O112       Cr129   1.974       .  S
O112        C113   1.250       .  A
C113        O114   1.260       .  A
C113        C584   1.482       .  S
O114       Cr130   2.016       .  S
O115       Cr130   2.029       .  S
O115        C116   1.267       .  A
C116        O117   1.256       .  A
C116        C637   1.486       .  S
O117       Cr131   1.974       .  S
O118       Cr131   1.998       .  S
O118        C119   1.270       .  A
C119        C594   1.485       .  S
O120       Cr129   1.994       .  S
O120        C128   1.255       .  A
O121       Cr129   1.998       .  S
O121        C122   1.273       .  A
C122        O123   1.281       .  A
C122        C647   1.503       .  S
O123       Cr130   2.044       .  S
O124       Cr130   1.978       .  S
O124        C125   1.260       .  A
C125        O126   1.266       .  A
C125        C807   1.455       .  S
O126       Cr131   1.984       .  S
O127       Cr131   1.984       .  S
O127        C128   1.258       .  A
C128        C767   1.479       .  S
Cr129       O132   1.782       .  S
Cr130       O132   1.784       .  S
Cr131       O132   1.763       .  S
O133       Cr151   1.994   1_455  S
O133        C141   1.269       .  A
O134       Cr151   1.976       .  S
O134        C135   1.250       .  A
C135        O136   1.260       .  A
C135        C567   1.482       .  S
O136       Cr152   2.012       .  S
O137       Cr152   2.031       .  S
O137        C138   1.268       .  A
C138        O139   1.255   1_655  A
C138        C574   1.487       .  S
O139       Cr153   1.967       .  S
O140       Cr153   2.002       .  S
O140        C141   1.271       .  A
C141        C627   1.480       .  S
O142       Cr151   1.993   1_455  S
O142        C150   1.254       .  A
O143       Cr151   1.991       .  S
O143        C144   1.272       .  A
C144        O145   1.280       .  A
C144        C777   1.494       .  S
O145       Cr152   2.039       .  S
O146       Cr152   1.985       .  S
O146        C147   1.262       .  A
C147        O148   1.265       .  A
C147        C677   1.459       .  S
O148       Cr153   1.980   1_655  S
O149       Cr153   1.976   1_655  S
O149        C150   1.254   1_655  A
C150        C717   1.471       .  S
Cr151       O154   1.786       .  S
Cr152       O154   1.782       .  S
Cr153       O154   1.760   1_455  S
O155       Cr173   1.999       .  S
O155        C163   1.265       .  A
O156       Cr173   1.982       .  S
O156        C157   1.256       .  A
C157        O158   1.260       .  A
C157        C554   1.479       .  S
O158       Cr174   1.999       .  S
O159       Cr174   2.047       .  S
O159        C160   1.270       .  A
C160        O161   1.256       .  A
C160        C577   1.497       .  S
O161       Cr175   1.972       .  S
O162       Cr175   1.990       .  S
O162        C163   1.265       .  A
C163        C667   1.477       .  S
O164       Cr173   2.005       .  S
O164        C172   1.262       .  A
O165       Cr173   1.989       .  S
O165        C166   1.270       .  A
C166        O167   1.280       .  A
C166        C727   1.499       .  S
O167       Cr174   2.041       .  S
O168       Cr174   1.961       .  S
O168        C169   1.256       .  A
C169        O170   1.268       .  A
C169        C617   1.448       .  S
O170       Cr175   1.996       .  S
O171       Cr175   1.986       .  S
O171        C172   1.262       .  A
C172        C597   1.483       .  S
Cr173       O176   1.777       .  S
Cr174       O176   1.780       .  S
Cr175       O176   1.757       .  S
O177       Cr195   2.005       .  S
O177        C185   1.275       .  A
O178       Cr195   1.966       .  S
O178        C179   1.255       .  A
C179        O180   1.266       .  A
C179        C544   1.489       .  S
O180       Cr196   2.025       .  S
O181       Cr196   2.012       .  S
O181        C182   1.255       .  A
C182        O183   1.246       .  A
C182        C587   1.482       .  S
O183       Cr197   1.975       .  S
O184       Cr197   1.985       .  S
O184        C185   1.271       .  A
C185        C514   1.477       .  S
O186       Cr195   1.984       .  S
O186        C194   1.252       .  A
O187       Cr195   1.971       .  S
O187        C188   1.265       .  A
C188        O189   1.261       .  A
C188        C534   1.455       .  S
O189       Cr196   1.983       .  S
O190       Cr196   2.050       .  S
O190        C191   1.285       .  A
C191        O192   1.275       .  A
C191        C504   1.498       .  S
O192       Cr197   1.984       .  S
O193       Cr197   1.995       .  S
O193        C194   1.251       .  A
C194        C524   1.480       .  S
Cr195       O198   1.765       .  S
Cr196       O198   1.786       .  S
Cr197       O198   1.787       .  S
O199       Cr217   1.994       .  S
O199        C207   1.266       .  A
O200       Cr217   1.967       .  S
O200        C201   1.256       .  A
C201        O202   1.270       .  A
C201        C547   1.492       .  S
O202       Cr218   2.044       .  S
O203       Cr218   2.002       .  S
O203        C204   1.260       .  A
C204        O205   1.255       .  A
C204        C607   1.480       .  S
O205       Cr219   1.980       .  S
O206       Cr219   2.003       .  S
O206        C207   1.266       .  A
C207        C494   1.484       .  S
O208       Cr217   1.980       .  S
O208        C216   1.260       .  A
O209       Cr217   1.993       .  S
O209        C210   1.267       .  A
C210        O211   1.258       .  A
C210        C484   1.452       .  S
O211       Cr218   1.969       .  S
O212       Cr218   2.039       .  S
O212        C213   1.278       .  A
C213        O214   1.271       .  A
C213        C467   1.498       .  S
O214       Cr219   1.993       .  S
O215       Cr219   2.002       .  S
O215        C216   1.262       .  A
C216        C474   1.477       .  S
Cr217       O220   1.756       .  S
Cr218       O220   1.780       .  S
Cr219       O220   1.777       .  S
O221       Cr239   1.999       .  S
O221        C229   1.268       .  A
O222       Cr239   1.963       .  S
O222        C223   1.255   1_565  A
C223        O224   1.272       .  A
C223        C454   1.499   1_545  S
O224       Cr240   2.053       .  S
O225       Cr240   1.996       .  S
O225        C226   1.259       .  A
C226        O227   1.254       .  A
C226        C737   1.473       .  S
O227       Cr241   1.978       .  S
O228       Cr241   2.008   1_565  S
O228        C229   1.269       .  A
C229        C527   1.488       .  S
O230       Cr239   1.982       .  S
O230        C238   1.260       .  A
O231       Cr239   1.994   1_545  S
O231        C232   1.268       .  A
C232        O233   1.255       .  A
C232        C444   1.447       .  S
O233       Cr240   1.959       .  S
O234       Cr240   2.043       .  S
O234        C235   1.280       .  A
C235        O236   1.272       .  A
C235        C424   1.501       .  S
O236       Cr241   1.997       .  S
O237       Cr241   1.999   1_565  S
O237        C238   1.260       .  A
C238        C434   1.478       .  S
Cr239       O242   1.756   1_565  S
Cr240       O242   1.781       .  S
Cr241       O242   1.776       .  S
O243       Cr261   2.002       .  S
O243        C251   1.273       .  A
O244       Cr261   1.968       .  S
O244        C245   1.256       .  A
C245        O246   1.267       .  A
C245        C457   1.492       .  S
O246       Cr262   2.033       .  S
O247       Cr262   2.000       .  S
O247        C248   1.256       .  A
C248        O249   1.249       .  A
C248        C787   1.474       .  S
O249       Cr263   1.975       .  S
O250       Cr263   1.997       .  S
O250        C251   1.272       .  A
C251        C414   1.482       .  S
O252       Cr261   1.984       .  S
O252        C260   1.254       .  A
O253       Cr261   1.979       .  S
O253        C254   1.266       .  A
C254        O255   1.259       .  A
C254        C537   1.455       .  S
O255       Cr262   1.976       .  S
O256       Cr262   2.041       .  S
O256        C257   1.282       .  A
C257        O258   1.274       .  A
C257        C404   1.496       .  S
O258       Cr263   1.991       .  S
O259       Cr263   1.993       .  S
O259        C260   1.253       .  A
C260        C497   1.476       .  S
Cr261       O264   1.765       .  S
Cr262       O264   1.787       .  S
Cr263       O264   1.784       .  S
O265       Cr283   1.991   1_655  S
O265        C273   1.265       .  A
O266       Cr283   1.967       .  S
O266        C267   1.254       .  A
C267        O268   1.270       .  A
C267        C397   1.490       .  S
O268       Cr284   2.046       .  S
O269       Cr284   2.007       .  S
O269        C270   1.263       .  A
C270        O271   1.256       .  A
C270        C564   1.482       .  S
O271       Cr285   1.982       .  S
O272       Cr285   1.997   1_655  S
O272        C273   1.263       .  A
C273        C477   1.478       .  S
O274       Cr283   1.975       .  S
O274        C282   1.260       .  A
O275       Cr283   1.998       .  S
O275        C276   1.267       .  A
C276        O277   1.261       .  A
C276        C384   1.459       .  S
O277       Cr284   1.979       .  S
O278       Cr284   2.039       .  S
O278        C279   1.278       .  A
C279        O280   1.269       .  A
C279        C407   1.494       .  S
O280       Cr285   1.989       .  S
O281       Cr285   2.003       .  S
O281        C282   1.263       .  A
C282        C374   1.476   1_455  S
Cr283       O286   1.754       .  S
Cr284       O286   1.775       .  S
Cr285       O286   1.777       .  S
O287       Cr305   1.993       .  S
O287        C295   1.266       .  A
O288       Cr305   1.976       .  S
O288        C289   1.255       .  A
C289        O290   1.267       .  A
C289        C394   1.483       .  S
O290       Cr306   2.034       .  S
O291       Cr306   2.007       .  S
O291        C292   1.262       .  A
C292        O293   1.255       .  A
C292        C557   1.480       .  S
O293       Cr307   1.980       .  S
O294       Cr307   1.996       .  S
O294        C295   1.266       .  A
C295        C364   1.480       .  S
O296       Cr305   1.983       .  S
O296        C304   1.260       .  A
O297       Cr305   1.991       .  S
O297        C298   1.268       .  A
C298        O299   1.260       .  A
C298        C487   1.452       .  S
O299       Cr306   1.974       .  S
O300       Cr306   2.038       .  S
O300        C301   1.277       .  A
C301        O302   1.271       .  A
C301        C427   1.501       .  S
O302       Cr307   1.997       .  S
O303       Cr307   1.992       .  S
O303        C304   1.260       .  A
C304        C517   1.475       .  S
Cr305       O308   1.763       .  S
Cr306       O308   1.778       .  S
Cr307       O308   1.775       .  S
O309       Cr327   1.986   1_655  S
O309        C317   1.264       .  A
O310       Cr327   1.975       .  S
O310        C311   1.254       .  A
C311        O312   1.269       .  A
C311        C354   1.487       .  S
O312       Cr328   2.041       .  S
O313       Cr328   2.014       .  S
O313        C314   1.264       .  A
C314        O315   1.256       .  A
C314        C657   1.488       .  S
O315       Cr329   1.983       .  S
O316       Cr329   2.001       .  S
O316        C317   1.265   1_455  A
C317        C437   1.476       .  S
O318       Cr327   1.980       .  S
O318        C326   1.261       .  A
O319       Cr327   1.995       .  S
O319        C320   1.267       .  A
C320        O321   1.262       .  A
C320        C387   1.459       .  S
O321       Cr328   1.983       .  S
O322       Cr328   2.036       .  S
O322        C323   1.277       .  A
C323        O324   1.269       .  A
C323        C507   1.495       .  S
O324       Cr329   1.994       .  S
O325       Cr329   1.997       .  S
O325        C326   1.261       .  A
C326        C367   1.473   1_455  S
Cr327       O330   1.757       .  S
Cr328       O330   1.776       .  S
Cr329       O330   1.778       .  S
O331       Cr349   1.992       .  S
O331        C339   1.268       .  A
O332       Cr349   1.976       .  S
O332        C333   1.254   1_565  A
C333        O334   1.267       .  A
C333        C357   1.486   1_545  S
O334       Cr350   2.036       .  S
O335       Cr350   2.006       .  S
O335        C336   1.261       .  A
C336        O337   1.254       .  A
C336        C697   1.478       .  S
O337       Cr351   1.983       .  S
O338       Cr351   1.990   1_565  S
O338        C339   1.266       .  A
C339        C377   1.474       .  S
O340       Cr349   1.991       .  S
O340        C348   1.261       .  A
O341       Cr349   1.993   1_545  S
O341        C342   1.269       .  A
C342        O343   1.257       .  A
C342        C447   1.447       .  S
O343       Cr350   1.963       .  S
O344       Cr350   2.040       .  S
O344        C345   1.279       .  A
C345        O346   1.270       .  A
C345        C464   1.499       .  S
O346       Cr351   1.995       .  S
O347       Cr351   1.992   1_565  S
O347        C348   1.258       .  A
C348        C417   1.483       .  S
Cr349       O352   1.763   1_565  S
Cr350       O352   1.781       .  S
Cr351       O352   1.777       .  S
C353        C354   1.407       .  A
C353        C358   1.408       .  A
C353        H359   1.083       .  S
C354        C355   1.406   1_455  A
C355        C356   1.406   1_565  A
C355        H360   1.084       .  S
C356        C357   1.406   1_545  A
C356        H361   1.083       .  S
C357        C358   1.406   1_655  A
C358        H362   1.083       .  S
C363        C364   1.407       .  A
C363        C368   1.393       .  A
C363        H369   1.083       .  S
C364        C365   1.406       .  A
C365        C366   1.402       .  A
C365        H370   1.083       .  S
C366        C367   1.407       .  A
C366        H371   1.083   1_655  S
C367        C368   1.400       .  A
C368        H372   1.083       .  S
C373        C374   1.408       .  A
C373        C378   1.401       .  A
C373        H379   1.083       .  S
C374        C375   1.402       .  A
C375        C376   1.393       .  A
C375        H380   1.083       .  S
C376        C377   1.405       .  A
C376        H381   1.083       .  S
C377        C378   1.403       .  A
C378        H382   1.083       .  S
C383        C384   1.401       .  A
C383        C388   1.397       .  A
C383        H389   1.084       .  S
C384        C385   1.401       .  A
C385        C386   1.396       .  A
C385        H390   1.084       .  S
C386        C387   1.401       .  A
C386        H391   1.084       .  S
C387        C388   1.402       .  A
C388        H392   1.084       .  S
C393        C394   1.407   1_455  A
C393        C398   1.412       .  A
C393        H399   1.083       .  S
C394        C395   1.403       .  A
C395        C396   1.399       .  A
C395        H400   1.084       .  S
C396        C397   1.407   1_655  A
C396        H401   1.083       .  S
C397        C398   1.409       .  A
C398        H402   1.083       .  S
C403        C404   1.409       .  A
C403        C408   1.406       .  A
C403        H409   1.083       .  S
C404        C405   1.408       .  A
C405        C406   1.404       .  A
C405        H410   1.083       .  S
C406        C407   1.407       .  A
C406        H411   1.083       .  S
C407        C408   1.407       .  A
C408        H412   1.083       .  S
C413        C414   1.409       .  A
C413        C418   1.398       .  A
C413        H419   1.084       .  S
C414        C415   1.403       .  A
C415        C416   1.403       .  A
C415        H420   1.083       .  S
C416        C417   1.410       .  A
C416        H421   1.083       .  S
C417        C418   1.402       .  A
C418        H422   1.083       .  S
C423        C424   1.409       .  A
C423        C428   1.408       .  A
C423        H429   1.083       .  S
C424        C425   1.408       .  A
C425        C426   1.407       .  A
C425        H430   1.083       .  S
C426        C427   1.408       .  A
C426        H431   1.083       .  S
C427        C428   1.409       .  A
C428        H432   1.083       .  S
C433        C434   1.400       .  A
C433        C438   1.392       .  A
C433        H439   1.083       .  S
C434        C435   1.410       .  A
C435        C436   1.404       .  A
C435        H440   1.083       .  S
C436        C437   1.403       .  A
C436        H441   1.083       .  S
C437        C438   1.407       .  A
C438        H442   1.083       .  S
C443        C444   1.398       .  A
C443        C448   1.391       .  A
C443        H449   1.084       .  S
C444        C445   1.400       .  A
C445        C446   1.391       .  A
C445        H450   1.084       .  S
C446        C447   1.399       .  A
C446        H451   1.084       .  S
C447        C448   1.400       .  A
C448        H452   1.084       .  S
C453        C454   1.413   1_545  A
C453        C458   1.420   1_545  A
C453        H459   1.083       .  S
C454        C455   1.406       .  A
C455        C456   1.394       .  A
C455        H460   1.083       .  S
C456        C457   1.402       .  A
C456        H461   1.084       .  S
C457        C458   1.411       .  A
C458        H462   1.083   1_565  S
C463        C464   1.408       .  A
C463        C468   1.405       .  A
C463        H469   1.083       .  S
C464        C465   1.410       .  A
C465        C466   1.408       .  A
C465        H470   1.083       .  S
C466        C467   1.408       .  A
C466        H471   1.083       .  S
C467        C468   1.408       .  A
C468        H472   1.083       .  S
C473        C474   1.409       .  A
C473        C478   1.404       .  A
C473        H479   1.083       .  S
C474        C475   1.401       .  A
C475        C476   1.392       .  A
C475        H480   1.083       .  S
C476        C477   1.406       .  A
C476        H481   1.083       .  S
C477        C478   1.404       .  A
C478        H482   1.083   1_554  S
C483        C484   1.400       .  A
C483        C488   1.392       .  A
C483        H489   1.084       .  S
C484        C485   1.400       .  A
C485        C486   1.395       .  A
C485        H490   1.084       .  S
C486        C487   1.401       .  A
C486        H491   1.083       .  S
C487        C488   1.400       .  A
C488        H492   1.084       .  S
C493        C494   1.408       .  A
C493        C498   1.395       .  A
C493        H499   1.083       .  S
C494        C495   1.406       .  A
C495        C496   1.405       .  A
C495        H500   1.083       .  S
C496        C497   1.408       .  A
C496        H501   1.083       .  S
C497        C498   1.400       .  A
C498        H502   1.084       .  S
C503        C504   1.409       .  A
C503        C508   1.406       .  A
C503        H509   1.083       .  S
C504        C505   1.409       .  A
C505        C506   1.405       .  A
C505        H510   1.083       .  S
C506        C507   1.406       .  A
C506        H511   1.083       .  S
C507        C508   1.408       .  A
C508        H512   1.083       .  S
C513        C514   1.407       .  A
C513        C518   1.396       .  A
C513        H519   1.083       .  S
C514        C515   1.403       .  A
C515        C516   1.399       .  A
C515        H520   1.083       .  S
C516        C517   1.407       .  A
C516        H521   1.083       .  S
C517        C518   1.402       .  A
C518        H522   1.083       .  S
C523        C524   1.408       .  A
C523        C528   1.408       .  A
C523        H529   1.083       .  S
C524        C525   1.401       .  A
C525        C526   1.396       .  A
C525        H530   1.084       .  S
C526        C527   1.408       .  A
C526        H531   1.083       .  S
C527        C528   1.407       .  A
C528        H532   1.083       .  S
C533        C534   1.402       .  A
C533        C538   1.395       .  A
C533        H539   1.084       .  S
C534        C535   1.401       .  A
C535        C536   1.394       .  A
C535        H540   1.084       .  S
C536        C537   1.401       .  A
C536        H541   1.084       .  S
C537        C538   1.399       .  A
C538        H542   1.084       .  S
C543        C544   1.404       .  A
C543        C548   1.395       .  A
C543        H549   1.084       .  S
C544        C545   1.408       .  A
C545        C546   1.416       .  A
C545        H550   1.083       .  S
C546        C547   1.411       .  A
C546        H551   1.083       .  S
C547        C548   1.405       .  A
C548        H552   1.083       .  S
C553        C554   1.403       .  A
C553        C558   1.397   1_455  A
C553        H559   1.082   1_455  S
C554        C555   1.408       .  A
C555        C556   1.399       .  A
C555        H560   1.084       .  S
C556        C557   1.403   1_455  A
C556        H561   1.082       .  S
C557        C558   1.408       .  A
C558        H562   1.084       .  S
C563        C564   1.408   1_556  A
C563        C568   1.399       .  A
C563        H569   1.084       .  S
C564        C565   1.404       .  A
C565        C566   1.399   1_455  A
C565        H570   1.082       .  S
C566        C567   1.409   1_554  A
C566        H571   1.084       .  S
C567        C568   1.403   1_655  A
C568        H572   1.082       .  S
C573        C574   1.403   1_455  A
C573        C578   1.398       .  A
C573        H579   1.084       .  S
C574        C575   1.407   1_655  A
C575        C576   1.415       .  A
C575        H580   1.083       .  S
C576        C577   1.411       .  A
C576        H581   1.083       .  S
C577        C578   1.407       .  A
C578        H582   1.083       .  S
C583        C584   1.409       .  A
C583        C588   1.398       .  A
C583        H589   1.084       .  S
C584        C585   1.403       .  A
C585        C586   1.400       .  A
C585        H590   1.082       .  S
C586        C587   1.409       .  A
C586        H591   1.083       .  S
C587        C588   1.403       .  A
C588        H592   1.083       .  S
C593        C594   1.408       .  A
C593        C598   1.396       .  A
C593        H599   1.083       .  S
C594        C595   1.405       .  A
C595        C596   1.406       .  A
C595        H600   1.083       .  S
C596        C597   1.410       .  A
C596        H601   1.083       .  S
C597        C598   1.402       .  A
C598        H602   1.084       .  S
C603        C604   1.408       .  A
C603        C608   1.398   1_556  A
C603        H609   1.084   1_556  S
C604        C605   1.403       .  A
C605        C606   1.397       .  A
C605        H610   1.083       .  S
C606        C607   1.408   1_556  A
C606        H611   1.083       .  S
C607        C608   1.403       .  A
C608        H612   1.083       .  S
C613        C614   1.401       .  A
C613        C618   1.391       .  A
C613        H619   1.084       .  S
C614        C615   1.399       .  A
C615        C616   1.392       .  A
C615        H620   1.084       .  S
C616        C617   1.400       .  A
C616        H621   1.084       .  S
C617        C618   1.398       .  A
C618        H622   1.084       .  S
C623        C624   1.402       .  A
C623        C628   1.396       .  A
C623        H629   1.083       .  S
C624        C625   1.409       .  A
C625        C626   1.403       .  A
C625        H630   1.083       .  S
C626        C627   1.404       .  A
C626        H631   1.083       .  S
C627        C628   1.407       .  A
C628        H632   1.083       .  S
C633        C634   1.406       .  A
C633        C638   1.399       .  A
C633        H639   1.084       .  S
C634        C635   1.410       .  A
C635        C636   1.414       .  A
C635        H640   1.083       .  S
C636        C637   1.408       .  A
C636        H641   1.083       .  S
C637        C638   1.403       .  A
C638        H642   1.084       .  S
C643        C644   1.408       .  A
C643        C648   1.408       .  A
C643        H649   1.083       .  S
C644        C645   1.409       .  A
C645        C646   1.408       .  A
C645        H650   1.083       .  S
C646        C647   1.409       .  A
C646        H651   1.083       .  S
C647        C648   1.410       .  A
C648        H652   1.082       .  S
C653        C654   1.410       .  A
C653        C658   1.402   1_645  A
C653        H659   1.084       .  S
C654        C655   1.404   1_645  A
C655        C656   1.402       .  A
C655        H660   1.082       .  S
C656        C657   1.410       .  A
C656        H661   1.084       .  S
C657        C658   1.404       .  A
C658        H662   1.082       .  S
C663        C664   1.399       .  A
C663        C668   1.390       .  A
C663        H669   1.084       .  S
C664        C665   1.409       .  A
C665        C666   1.404       .  A
C665        H670   1.083       .  S
C666        C667   1.405       .  A
C666        H671   1.083       .  S
C667        C668   1.406       .  A
C668        H672   1.083       .  S
C673        C674   1.401       .  A
C673        C678   1.396       .  A
C673        H679   1.084       .  S
C674        C675   1.401       .  A
C675        C676   1.396       .  A
C675        H680   1.084       .  S
C676        C677   1.401       .  A
C676        H681   1.084       .  S
C677        C678   1.402       .  A
C678        H682   1.084       .  S
C683        C684   1.409       .  A
C683        C688   1.406       .  A
C683        H689   1.083       .  S
C684        C685   1.408       .  A
C685        C686   1.407       .  A
C685        H690   1.083       .  S
C686        C687   1.409       .  A
C686        H691   1.083       .  S
C687        C688   1.408       .  A
C688        H692   1.083       .  S
C693        C694   1.404       .  A
C693        C698   1.398   1_465  A
C693        H699   1.082       .  S
C694        C695   1.407   1_556  A
C695        C696   1.399       .  A
C695        H700   1.084       .  S
C696        C697   1.404   1_465  A
C696        H701   1.082       .  S
C697        C698   1.407   1_554  A
C698        H702   1.084       .  S
C703        C704   1.411       .  A
C703        C708   1.415       .  A
C703        H709   1.083       .  S
C704        C705   1.406   1_565  A
C705        C706   1.398       .  A
C705        H710   1.083       .  S
C706        C707   1.403   1_455  A
C706        H711   1.084   1_455  S
C707        C708   1.407   1_645  A
C708        H712   1.083       .  S
C713        C714   1.405       .  A
C713        C718   1.389       .  A
C713        H719   1.083       .  S
C714        C715   1.404       .  A
C715        C716   1.404       .  A
C715        H720   1.083       .  S
C716        C717   1.408       .  A
C716        H721   1.083       .  S
C717        C718   1.399       .  A
C718        H722   1.084       .  S
C723        C724   1.409       .  A
C723        C728   1.408       .  A
C723        H729   1.083       .  S
C724        C725   1.407       .  A
C725        C726   1.405       .  A
C725        H730   1.083       .  S
C726        C727   1.409       .  A
C726        H731   1.083       .  S
C727        C728   1.408       .  A
C728        H732   1.083       .  S
C733        C734   1.408       .  A
C733        C738   1.395       .  A
C733        H739   1.084       .  S
C734        C735   1.402       .  A
C735        C736   1.395   1_565  A
C735        H740   1.082       .  S
C736        C737   1.407       .  A
C736        H741   1.084       .  S
C737        C738   1.402   1_545  A
C738        H742   1.082       .  S
C743        C744   1.401       .  A
C743        C748   1.394       .  A
C743        H749   1.083       .  S
C744        C745   1.409       .  A
C745        C746   1.401       .  A
C745        H750   1.084   1_545  S
C746        C747   1.403       .  A
C746        H751   1.083       .  S
C747        C748   1.406       .  A
C748        H752   1.084       .  S
C753        C754   1.401       .  A
C753        C758   1.395       .  A
C753        H759   1.083       .  S
C754        C755   1.399       .  A
C755        C756   1.391       .  A
C755        H760   1.084       .  S
C756        C757   1.400       .  A
C756        H761   1.084       .  S
C757        C758   1.400       .  A
C758        H762   1.084       .  S
C763        C764   1.404       .  A
C763        C768   1.406       .  A
C763        H769   1.083       .  S
C764        C765   1.407       .  A
C765        C766   1.392       .  A
C765        H770   1.083       .  S
C766        C767   1.400       .  A
C766        H771   1.083       .  S
C767        C768   1.411       .  A
C768        H772   1.083       .  S
C773        C774   1.408       .  A
C773        C778   1.405       .  A
C773        H779   1.083       .  S
C774        C775   1.407       .  A
C775        C776   1.404       .  A
C775        H780   1.083       .  S
C776        C777   1.407       .  A
C776        H781   1.083       .  S
C777        C778   1.408       .  A
C778        H782   1.083       .  S
C783        C784   1.408   1_554  A
C783        C788   1.395   1_545  A
C783        H789   1.084       .  S
C784        C785   1.402   1_545  A
C785        C786   1.396       .  A
C785        H790   1.082       .  S
C786        C787   1.408   1_556  A
C786        H791   1.084       .  S
C787        C788   1.401       .  A
C788        H792   1.082       .  S
C793        C794   1.402       .  A
C793        C798   1.394       .  A
C793        H799   1.083       .  S
C794        C795   1.409       .  A
C795        C796   1.403       .  A
C795        H800   1.083   1_545  S
C796        C797   1.403       .  A
C796        H801   1.083       .  S
C797        C798   1.406       .  A
C798        H802   1.083       .  S
C803        C804   1.400       .  A
C803        C808   1.393       .  A
C803        H809   1.084       .  S
C804        C805   1.401       .  A
C805        C806   1.395       .  A
C805        H810   1.084       .  S
C806        C807   1.401       .  A
C806        H811   1.083       .  S
C807        C808   1.401       .  A
C808        H812   1.084       .  S
C813        C814   1.409       .  A
C813        C818   1.404       .  A
C813        H819   1.082       .  S
C814        C815   1.401       .  A
C815        C816   1.395       .  A
C815        H820   1.084       .  S
C816        C817   1.408       .  A
C816        H821   1.082       .  S
C817        C818   1.404       .  A
C818        H822   1.084       .  S
C823        C824   1.406   1_565  A
C823        C828   1.411       .  A
C823        H829   1.083       .  S
C824        C825   1.405       .  A
C825        C826   1.403       .  A
C825        H830   1.084       .  S
C826        C827   1.406   1_545  A
C826        H831   1.083       .  S
C827        C828   1.409       .  A
C828        H832   1.083       .  S
