geometry optimzed in LAMMPS
_audit_creation_date              2020-12-01 
_audit_creation_method            'lammps2cif' 
_symmetry_space_group_name_H-M    'P1' 
_symmetry_Int_Tables_number       1 
_symmetry_cell_setting            triclinic 
loop_ 
_symmetry_equiv_pos_as_xyz 
  x,y,z 
_cell_length_a                    73.13503824 
_cell_length_b                    73.10809357694146 
_cell_length_c                    30.59930994773263 
_cell_angle_alpha                 89.87798617574617 
_cell_angle_beta                  90.05970372793648 
_cell_angle_gamma                 89.96472324747026 
loop_ 
_atom_site_label 
_atom_site_type_symbol 
_atom_site_fract_x 
_atom_site_fract_y 
_atom_site_fract_z 
_atom_site_charge 
O1          O  0.98731502  0.12451975  0.58704367    -0.83900
O2          O  0.02453568  0.12274531  0.58171672    -0.81000
C3          C  0.04016167  0.11791685  0.56886199     0.99500
O4          O  0.04197250  0.11055483  0.53174319    -0.81000
O5          O  0.02046560  0.07843870  0.52217925    -0.83600
C6          C  0.00642142  0.06875288  0.51525629     1.04100
O7          O  0.99227440  0.07574895  0.49863729    -0.76400
O8          O  0.98120360  0.09610954  0.56884030    -0.76600
C9          C  0.98274079  0.10832663  0.59783396     1.04000
O10         O  0.98731450  0.14487824  0.50344962    -0.83900
O11         O  0.02459046  0.14370063  0.50219260    -0.81000
C12         C  0.03024934  0.13933820  0.46448047     0.99600
O13         O  0.02823700  0.12321728  0.45054525    -0.81000
O14         O  0.00988378  0.09125453  0.43688776    -0.83600
C15         C  0.99622274  0.09840076  0.41800443     1.04000
O16         O  0.98356328  0.10536289  0.44082206    -0.76400
O17         O  0.96709423  0.12338619  0.51061730    -0.76600
C18         C  0.97115107  0.13935868  0.49862144     1.04000
Cr19       Cr  0.00568234  0.13239093  0.54139889     1.93700
Cr20       Cr  0.02367600  0.10151962  0.48765920     1.93200
Cr21       Cr  0.98257187  0.10099195  0.50517542     1.39100
O22         O  0.00413199  0.11169111  0.51179697    -1.21700
O23         O  0.99802258  0.90992528  0.46510528    -0.83900
O24         O  0.98687661  0.92876528  0.53777400    -0.81000
C25         C  0.97288869  0.93684819  0.52369789     0.99500
O26         O  0.95928951  0.92759696  0.51054928    -0.81000
O27         O  0.93792011  0.89508368  0.49288415    -0.83600
C28         C  0.94044977  0.88667683  0.45712663     1.04100
O29         O  0.95630782  0.88174045  0.44632088    -0.76400
O30         O  0.99355244  0.88126924  0.44637656    -0.76600
C31         C  0.99724012  0.89771910  0.43597154     1.04000
O32         O  0.01226665  0.88197398  0.52030431    -0.83900
O33         O  0.99465077  0.89852950  0.59137431    -0.81000
C34         C  0.98158110  0.90502694  0.61379468     0.99600
O35         O  0.96778555  0.91208589  0.59500648    -0.81000
O36         O  0.94921461  0.88133996  0.57522057    -0.83600
C37         C  0.94827811  0.86511097  0.56170597     1.04000
O38         O  0.95509077  0.86072031  0.52521496    -0.76400
O39         O  0.99225887  0.86059668  0.52936657    -0.76600
C40         C  0.00847915  0.86606496  0.53295222     1.04000
Cr41       Cr  0.99643144  0.90396389  0.52786473     1.93700
Cr42       Cr  0.95503558  0.90342289  0.54087754     1.93200
Cr43       Cr  0.97446951  0.87264754  0.48902907     1.39100
O44         O  0.97503013  0.89334497  0.51881332    -1.21700
O45         O  0.11678122  0.25066532  0.71488450    -0.83900
O46         O  0.11958263  0.21326815  0.71572765    -0.81000
C47         C  0.12529199  0.19761853  0.72664301     0.99500
O48         O  0.13388073  0.19543112  0.76229249    -0.81000
O49         O  0.16634437  0.21703524  0.77055316    -0.83600
C50         C  0.17587277  0.23141178  0.77550219     1.04100
O51         O  0.16882820  0.24538072  0.79254006    -0.76400
O52         O  0.14607730  0.25536967  0.72505293    -0.76600
C53         C  0.13243327  0.25444739  0.69979819     1.04000
O54         O  0.09985837  0.24921594  0.80072699    -0.83900
O55         O  0.10109072  0.21181233  0.79706833    -0.81000
C56         C  0.10599799  0.20604552  0.83412538     0.99600
O57         O  0.12243819  0.20770036  0.84647253    -0.81000
O58         O  0.15447315  0.22689441  0.85690824    -0.83600
C59         C  0.14831953  0.24105928  0.87564260     1.04000
O60         O  0.14085577  0.25364153  0.85345602    -0.76400
O61         O  0.12063778  0.26952004  0.78654707    -0.76600
C62         C  0.10516833  0.26559842  0.80185294     1.04000
Cr63       Cr  0.11099073  0.23141269  0.75907653     1.93700
Cr64       Cr  0.14356436  0.21319039  0.80694748     1.93200
Cr65       Cr  0.14328841  0.25440707  0.78910539     1.39100
O66         O  0.13261311  0.23276815  0.78482180    -1.21700
O67         O  0.33998471  0.24021638  0.80937743    -0.83900
O68         O  0.31783222  0.24970842  0.73924170    -0.81000
C69         C  0.30925691  0.26348004  0.75299536     0.99500
O70         O  0.31791702  0.27793951  0.76279040    -0.81000
O71         O  0.34873047  0.30129077  0.77690384    -0.83600
C72         C  0.35657305  0.29898276  0.81350956     1.04100
O73         O  0.36315804  0.28360211  0.82341502    -0.76400
O74         O  0.36874689  0.24676009  0.82240331    -0.76600
C75         C  0.35327802  0.24126954  0.83573039     1.04000
O76         O  0.36748200  0.22876016  0.74952364    -0.83900
O77         O  0.34732864  0.24379120  0.68151193    -0.81000
C78         C  0.33929145  0.25599293  0.65922713     0.99600
O79         O  0.33224454  0.26979514  0.67768576    -0.81000
O80         O  0.36247349  0.29054993  0.69291404    -0.83600
C81         C  0.37846137  0.29346661  0.70681323     1.04000
O82         O  0.38320319  0.28796212  0.74429221    -0.76400
O83         O  0.38694357  0.25068503  0.73831132    -0.76600
C84         C  0.38290688  0.23397799  0.73616466     1.04000
Cr85       Cr  0.34382194  0.24223520  0.74552934     1.93700
Cr86       Cr  0.34115266  0.28352538  0.72981698     1.93200
Cr87       Cr  0.37391928  0.26700960  0.77992651     1.39100
O88         O  0.35290661  0.26446792  0.75202790    -1.21700
O89         O  0.83067605  0.74405207  0.29821385    -0.83900
O90         O  0.81122969  0.75587484  0.22670830    -0.81000
C91         C  0.80434818  0.76986603  0.24398768     0.99500
O92         O  0.81454143  0.78323825  0.25408606    -0.81000
O93         O  0.84784159  0.80369008  0.26653247    -0.83600
C94         C  0.85614934  0.80092377  0.30236481     1.04100
O95         O  0.85997217  0.78482526  0.31374138    -0.76400
O96         O  0.85965469  0.74756066  0.31486161    -0.76600
C97         C  0.84328052  0.74441328  0.32645752     1.04000
O98         O  0.85742653  0.72859615  0.24152656    -0.83900
O99         O  0.84045675  0.74635131  0.17136860    -0.81000
C100        C  0.83400730  0.75941351  0.14882478     0.99600
O101        O  0.82790505  0.77369633  0.16744159    -0.81000
O102        O  0.85992114  0.79134471  0.18398250    -0.83600
C103        C  0.87617481  0.79215481  0.19778654     1.04000
O104        O  0.88053783  0.78517808  0.23424397    -0.76400
O105        O  0.87947228  0.74797685  0.23217814    -0.76600
C106        C  0.87365151  0.73183913  0.23030431     1.04000
Cr107      Cr  0.83586303  0.74521080  0.23502717     1.93700
Cr108      Cr  0.83803508  0.78649107  0.22028688     1.93200
Cr109      Cr  0.86834475  0.76628984  0.27156461     1.39100
O110        O  0.84753004  0.76621266  0.24238377    -1.21700
O111        O  0.61580567  0.75241696  0.22158407    -0.83900
O112        O  0.62078008  0.71516781  0.22010203    -0.81000
C113        C  0.62540143  0.69936205  0.23239399     0.99500
O114        O  0.63370013  0.69733839  0.26847429    -0.81000
O115        O  0.66466216  0.72128078  0.28246070    -0.83600
C116        C  0.67276546  0.73627013  0.29073851     1.04100
O117        O  0.66435329  0.74863087  0.31089814    -0.76400
O118        O  0.64408409  0.75919195  0.23903887    -0.76600
C119        C  0.63158137  0.75793341  0.21059754     1.04000
O120        O  0.59585315  0.74807586  0.30324963    -0.83900
O121        O  0.59967488  0.71131240  0.29711640    -0.81000
C122        C  0.60385792  0.70515673  0.33435454     0.99600
O123        O  0.61957217  0.70791195  0.35038529    -0.81000
O124        O  0.64982750  0.72855962  0.36863496    -0.83600
C125        C  0.64169288  0.74155716  0.38797296     1.04000
O126        O  0.63386118  0.75396027  0.36581305    -0.76400
O127        O  0.61541479  0.77015956  0.29608651    -0.76600
C128        C  0.59987412  0.76466292  0.30767189     1.04000
Cr129      Cr  0.60953696  0.73203707  0.26263101     1.93700
Cr130      Cr  0.64138037  0.71514638  0.31532427     1.93200
Cr131      Cr  0.63878193  0.75645982  0.30229534     1.39100
O132        O  0.62987604  0.73433293  0.29311878    -1.21700
O133        O  0.48534148  0.62188849  0.09109932    -0.83900
O134        O  0.52273478  0.62096748  0.09549080    -0.81000
C135        C  0.53853403  0.61521510  0.08618078     0.99500
O136        O  0.54134737  0.60677892  0.05060340    -0.81000
O137        O  0.51990270  0.57508353  0.02755205    -0.83600
C138        C  0.50613544  0.56619582  0.01377002     1.04100
O139        O  0.49283669  0.57475811  0.99787915    -0.76400
O140        O  0.48173154  0.59313751  0.07261824    -0.76600
C141        C  0.48220713  0.60541228  0.10180177     1.04000
O142        O  0.48830087  0.64290113  0.00928291    -0.83900
O143        O  0.52543307  0.64258939  0.01921002    -0.81000
C144        C  0.53338438  0.63870278  0.98393672     0.99600
O145        O  0.53269985  0.62267830  0.96848578    -0.81000
O146        O  0.51334245  0.59255846  0.94338985    -0.83600
C147        C  0.49967728  0.59984548  0.92443217     1.04000
O148        O  0.48630697  0.60582505  0.94673839    -0.76400
O149        O  0.46822377  0.62164163  0.01791876    -0.76600
C150        C  0.47214964  0.63734633  0.00426876     1.04000
Cr151      Cr  0.50530406  0.63050990  0.05141922     1.93700
Cr152      Cr  0.52530573  0.59985373  0.99975259     1.93200
Cr153      Cr  0.48379200  0.59962723  0.00975317     1.39100
O154        O  0.50515344  0.61001132  0.02061193    -1.21700
O155        O  0.49798760  0.39303571  0.97189659    -0.83900
O156        O  0.47952770  0.42285324  0.99926433    -0.81000
C157        C  0.46772242  0.43308529  0.01604595     0.99500
O158        O  0.45525306  0.42614307  0.03985669    -0.81000
O159        O  0.43511962  0.39833725  0.99443851    -0.83600
C160        C  0.43149071  0.38273359  0.97900200     1.04100
O161        O  0.44167579  0.36919257  0.98717338    -0.76400
O162        O  0.47393037  0.37791860  0.94829205    -0.76600
C163        C  0.48845196  0.38656852  0.94086781     1.04000
O164        O  0.50174968  0.38204935  0.06303301    -0.83900
O165        O  0.48517437  0.41303703  0.09027580    -0.81000
C166        C  0.47359276  0.40860254  0.11923048     0.99600
O167        O  0.45906882  0.40046328  0.10937315    -0.81000
O168        O  0.43794028  0.37490240  0.07068536    -0.83600
C169        C  0.44606938  0.35979026  0.07815696     1.04000
O170        O  0.46139938  0.35647723  0.06118215    -0.76400
O171        O  0.49403880  0.36085523  0.01677611    -0.76600
C172        C  0.50455500  0.36665696  0.04637835     1.04000
Cr173      Cr  0.48951799  0.40181566  0.03096652     1.93700
Cr174      Cr  0.44833364  0.39939103  0.05132458     1.93200
Cr175      Cr  0.46786941  0.36779806  0.00523382     1.39100
O176        O  0.46856796  0.38980399  0.02910621    -1.21700
O177        O  0.12114257  0.75240672  0.81341411    -0.83900
O178        O  0.12272646  0.78990715  0.81286307    -0.81000
C179        C  0.12719407  0.80585677  0.80132582     0.99500
O180        O  0.13512009  0.80847995  0.76499483    -0.81000
O181        O  0.16863437  0.78923525  0.75603205    -0.83600
C182        C  0.17911555  0.77564141  0.75054307     1.04100
O183        O  0.17285371  0.76072087  0.73667715    -0.76400
O184        O  0.15063893  0.74924514  0.80350087    -0.76600
C185        C  0.13686807  0.74865794  0.82818821     1.04000
O186        O  0.10424290  0.75359917  0.72812840    -0.83900
O187        O  0.10356550  0.79103784  0.73225653    -0.81000
C188        C  0.10786293  0.79708014  0.69500672     0.99600
O189        O  0.12405358  0.79531735  0.68117669    -0.81000
O190        O  0.15724772  0.77810922  0.66987458    -0.83600
C191        C  0.15280730  0.76295667  0.65275748     1.04000
O192        O  0.14588027  0.75040623  0.67576075    -0.76400
O193        O  0.12596355  0.73397661  0.74112324    -0.76600
C194        C  0.11021410  0.73746121  0.72653197     1.04000
Cr195      Cr  0.11458583  0.77162935  0.76961588     1.93700
Cr196      Cr  0.14563939  0.79128421  0.72018685     1.93200
Cr197      Cr  0.14794231  0.75016555  0.73967607     1.39100
O198        O  0.13608144  0.77121278  0.74329009    -1.21700
O199        O  0.34076434  0.75846203  0.72141020    -0.83900
O200        O  0.31934494  0.75132383  0.79239637    -0.81000
C201        C  0.31020706  0.73894481  0.77407677     0.99500
O202        O  0.31738795  0.72334705  0.76810591    -0.81000
O203        O  0.34596325  0.69725121  0.75737921    -0.83600
C204        C  0.35370208  0.69819735  0.72040960     1.04100
O205        O  0.36118297  0.71286600  0.70819415    -0.76400
O206        O  0.36862298  0.74942630  0.70498697    -0.76600
C207        C  0.35321819  0.75593592  0.69362127     1.04000
O208        O  0.36978828  0.76879432  0.77656615    -0.83900
O209        O  0.35018072  0.75562544  0.84734119    -0.81000
C210        C  0.34128001  0.74452601  0.87074887     0.99600
O211        O  0.33224411  0.73155231  0.85380240    -0.81000
O212        O  0.36090776  0.70820702  0.83941147    -0.83600
C213        C  0.37673164  0.70434250  0.82551271     1.04000
O214        O  0.38154712  0.70906247  0.78746208    -0.76400
O215        O  0.38793462  0.74588180  0.78893965    -0.76600
C216        C  0.38489093  0.76280802  0.78993815     1.04000
Cr217      Cr  0.34556837  0.75694421  0.78414775     1.93700
Cr218      Cr  0.33990750  0.71632661  0.80249049     1.93200
Cr219      Cr  0.37334480  0.72970606  0.74952560     1.39100
O220        O  0.35293432  0.73407841  0.77838618    -1.21700
O221        O  0.00192108  0.87659354  0.94578850    -0.83900
O222        O  0.03514367  0.86940744  0.97869423    -0.81000
C223        C  0.04452944  0.88325378  0.96786592     0.99500
O224        O  0.04177597  0.89862206  0.98557147    -0.81000
O225        O  0.02372841  0.92570131  0.03679372    -0.83600
C226        C  0.01130902  0.93334864  0.01452393     1.04100
O227        O  0.99954025  0.92367708  0.99572573    -0.76400
O228        O  0.97961429  0.89434058  0.96854355    -0.76600
C229        C  0.98816275  0.88633628  0.93785512     1.04000
O230        O  0.98417609  0.86065491  0.01936903    -0.83900
O231        O  0.01804689  0.85684735  0.05848945    -0.81000
C232        C  0.03403834  0.86009680  0.07167320     0.99600
O233        O  0.04190480  0.87480812  0.06033009    -0.81000
O234        O  0.02082377  0.89976151  0.10389296    -0.83600
C235        C  0.00693195  0.90883999  0.11494658     1.04000
O236        O  0.99486669  0.91344346  0.08698915    -0.76400
O237        O  0.97593813  0.88347694  0.06048693    -0.76600
C238        C  0.97378803  0.86723207  0.04825024     1.04000
Cr239      Cr  0.00972685  0.86757506  0.00254877     1.93700
Cr240      Cr  0.03047049  0.89910186  0.04453626     1.93200
Cr241      Cr  0.98903714  0.90268319  0.02756441     1.39100
O242        O  0.00961050  0.88987707  0.02472683    -1.21700
O243        O  0.00307256  0.10790760  0.06159766    -0.83900
O244        O  0.98508869  0.07743068  0.04236268    -0.81000
C245        C  0.97373827  0.06590883  0.02951618     0.99500
O246        O  0.95988852  0.07126717  0.00782618    -0.81000
O247        O  0.94007586  0.10047488  0.05067615    -0.83600
C248        C  0.93656465  0.11660821  0.06317973     1.04100
O249        O  0.94589879  0.12992129  0.04935695    -0.76400
O250        O  0.97935469  0.12363808  0.08511909    -0.76600
C251        C  0.99394715  0.11505161  0.09259760     1.04000
O252        O  0.00468229  0.11617084  0.96733662    -0.83900
O253        O  0.98799250  0.08409506  0.94774722    -0.81000
C254        C  0.97517277  0.08689611  0.92034919     0.99600
O255        O  0.96035832  0.09401810  0.93223492    -0.81000
O256        O  0.93979509  0.12048219  0.96897647    -0.83600
C257        C  0.94723836  0.13528482  0.95603764     1.04000
O258        O  0.96293597  0.13972973  0.96951571    -0.76400
O259        O  0.99692389  0.13842457  0.01028909    -0.76600
C260        C  0.00707137  0.13223216  0.98047950     1.04000
Cr261      Cr  0.99357871  0.09720618  0.00484638     1.93700
Cr262      Cr  0.95161273  0.09725888  0.99191996     1.93200
Cr263      Cr  0.97140122  0.13119315  0.02691425     1.39100
O264        O  0.97221617  0.10842549  0.00782792    -1.21700
O265        O  0.50070813  0.60844043  0.56922745    -0.83900
O266        O  0.48122939  0.57849407  0.54641246    -0.81000
C267        C  0.46949233  0.56802276  0.53021594     0.99500
O268        O  0.45713452  0.57458927  0.50543263    -0.81000
O269        O  0.43716484  0.60326812  0.54754880    -0.83600
C270        C  0.43423682  0.61900733  0.56315189     1.04100
O271        O  0.44450697  0.63230705  0.55321419    -0.76400
O272        O  0.47720393  0.62460106  0.59187397    -0.76600
C273        C  0.49171764  0.61596097  0.59982608     1.04000
O274        O  0.50382241  0.61704081  0.47618636    -0.83900
O275        O  0.48689256  0.58588182  0.45391266    -0.81000
C276        C  0.47568388  0.59037122  0.42410417     0.99600
O277        O  0.46117635  0.59877228  0.43291408    -0.81000
O278        O  0.44014942  0.62518334  0.46890120    -0.83600
C279        C  0.44873914  0.63973893  0.45888957     1.04000
O280        O  0.46392690  0.64320432  0.47625370    -0.76400
O281        O  0.49654369  0.63962936  0.51896855    -0.76600
C282        C  0.50628109  0.63315381  0.48866275     1.04000
Cr283      Cr  0.49159406  0.59839391  0.51165239     1.93700
Cr284      Cr  0.45040073  0.60104468  0.49093451     1.93200
Cr285      Cr  0.47055096  0.63321029  0.53348044     1.39100
O286        O  0.47080971  0.61073637  0.51236067    -1.21700
O287        O  0.48913402  0.37731218  0.45299371    -0.83900
O288        O  0.52643338  0.38191264  0.45419264    -0.81000
C289        C  0.54182690  0.38772536  0.46660890     0.99500
O290        O  0.54335955  0.39573508  0.50312350    -0.81000
O291        O  0.51984060  0.42669716  0.51732455    -0.83600
C292        C  0.50540748  0.43519448  0.52808508     1.04100
O293        O  0.49159471  0.42642029  0.54081482    -0.76400
O294        O  0.48239085  0.40575050  0.46912314    -0.76600
C295        C  0.48406347  0.39316270  0.44116463     1.04000
O296        O  0.49191931  0.35759085  0.53585800    -0.83900
O297        O  0.52915301  0.36114191  0.53230961    -0.81000
C298        C  0.53484337  0.36567048  0.56970337     0.99600
O299        O  0.53175830  0.38140916  0.58478087    -0.81000
O300        O  0.51112596  0.41153877  0.60116634    -0.83600
C301        C  0.49762501  0.40378823  0.61921045     1.04000
O302        O  0.48531403  0.39622901  0.59633137    -0.76400
O303        O  0.47018765  0.37735559  0.52577865    -0.76600
C304        C  0.47525450  0.36176401  0.53839766     1.04000
Cr305      Cr  0.50883710  0.37105082  0.49601891     1.93700
Cr306      Cr  0.52512029  0.40310339  0.54911840     1.93200
Cr307      Cr  0.48395208  0.40074710  0.53240178     1.39100
O308        O  0.50619887  0.39167850  0.52546614    -1.21700
O309        O  0.83226296  0.25821299  0.22208322    -0.83900
O310        O  0.81148960  0.24688101  0.29218232    -0.81000
C311        C  0.80491445  0.23315139  0.27315736     0.99500
O312        O  0.81497845  0.21938037  0.26563211    -0.81000
O313        O  0.84766156  0.19854048  0.25683064    -0.83600
C314        C  0.85635376  0.20075429  0.22152621     1.04100
O315        O  0.86202960  0.21639282  0.21069029    -0.76400
O316        O  0.86142487  0.25378391  0.20781679    -0.76600
C317        C  0.84522908  0.25695812  0.19484711     1.04000
O318        O  0.85805570  0.27381225  0.28077167    -0.83900
O319        O  0.84054233  0.25578024  0.35025561    -0.81000
C320        C  0.83416096  0.24243037  0.37200558     0.99600
O321        O  0.82701587  0.22904736  0.35222563    -0.81000
O322        O  0.85931131  0.21082096  0.34032492    -0.83600
C323        C  0.87596151  0.21047213  0.32908638     1.04000
O324        O  0.88091359  0.21722910  0.29286223    -0.76400
O325        O  0.88005044  0.25459420  0.29226436    -0.76600
C326        C  0.87419099  0.27078090  0.29304386     1.04000
Cr327      Cr  0.83647256  0.25715935  0.28599602     1.93700
Cr328      Cr  0.83789101  0.21591325  0.30162457     1.93200
Cr329      Cr  0.86942609  0.23560001  0.25298154     1.39100
O330        O  0.84802930  0.23597744  0.27980114    -1.21700
O331        O  0.61820510  0.25495739  0.31885980    -0.83900
O332        O  0.62122345  0.29225925  0.31839136    -0.81000
C333        C  0.62660221  0.30798912  0.30747536     0.99500
O334        O  0.63438965  0.31036744  0.27080129    -0.81000
O335        O  0.66622824  0.28804621  0.25592392    -0.83600
C336        C  0.67523508  0.27391174  0.24527152     1.04100
O337        O  0.66704349  0.26014637  0.23039401    -0.76400
O338        O  0.64691593  0.24947073  0.30154225    -0.76600
C339        C  0.63416364  0.24954149  0.32927515     1.04000
O340        O  0.59849978  0.25763744  0.23508866    -0.83900
O341        O  0.60043210  0.29472352  0.23950265    -0.81000
C342        C  0.60467908  0.30019454  0.20164162     0.99600
O343        O  0.62082326  0.29851410  0.18791923    -0.81000
O344        O  0.65148122  0.27926301  0.17042886    -0.83600
C345        C  0.64470807  0.26515779  0.15238865     1.04000
O346        O  0.63707775  0.25296228  0.17536746    -0.76400
O347        O  0.61908458  0.23674299  0.24529449    -0.76600
C348        C  0.60345269  0.24123276  0.23206344     1.04000
Cr349      Cr  0.61112910  0.27470178  0.27585142     1.93700
Cr350      Cr  0.64257402  0.29268386  0.22369059     1.93200
Cr351      Cr  0.64178081  0.25143508  0.23876825     1.39100
O352        O  0.63187447  0.27318624  0.24660061    -1.21700
O353        O  0.47397341  0.87881950  0.07955964    -0.83900
O354        O  0.44304651  0.87124357  0.03628051    -0.81000
C355        C  0.43308281  0.88447878  0.04818732     0.99500
O356        O  0.43595715  0.90045547  0.03340773    -0.81000
O357        O  0.45611435  0.92981895  0.99087833    -0.83600
C358        C  0.46784464  0.93679942  0.01659923     1.04100
O359        O  0.47861865  0.92645417  0.03668813    -0.76400
O360        O  0.49732588  0.89664649  0.06409990    -0.76600
C361        C  0.48724704  0.88841006  0.09164751     1.04000
O362        O  0.49602618  0.86489083  0.01063505    -0.83900
O363        O  0.46468576  0.86166089  0.96141903    -0.81000
C364        C  0.44920893  0.86444237  0.94476820     0.99600
O365        O  0.44025427  0.87876284  0.95495034    -0.81000
O366        O  0.46200687  0.90560997  0.92081607    -0.83600
C367        C  0.47675377  0.91407337  0.91428966     1.04000
O368        O  0.48729480  0.91847746  0.94556534    -0.76400
O369        O  0.50489992  0.88822460  0.97212949    -0.76600
C370        C  0.50710902  0.87195112  0.98392733     1.04000
Cr371      Cr  0.46954719  0.87087341  0.02026861     1.93700
Cr372      Cr  0.44994863  0.90309869  0.97742744     1.93200
Cr373      Cr  0.49050659  0.90647028  0.00453154     1.39100
O374        O  0.47006337  0.89362754  0.00091317    -1.21700
O375        O  0.48068458  0.11115713  0.97464254    -0.83900
O376        O  0.49947970  0.08090104  0.99643015    -0.81000
C377        C  0.51048738  0.06962506  0.01232421     0.99500
O378        O  0.52432414  0.07571477  0.03308444    -0.81000
O379        O  0.54364407  0.10434741  0.98431464    -0.83600
C380        C  0.54672502  0.12026614  0.96937560     1.04100
O381        O  0.53742140  0.13380065  0.98241119    -0.76400
O382        O  0.50380696  0.12735053  0.94973941    -0.76600
C383        C  0.48928112  0.11862634  0.94311050     1.04000
O384        O  0.47989444  0.12042665  0.06831846    -0.83900
O385        O  0.49703107  0.08917614  0.09015240    -0.81000
C386        C  0.50966322  0.09324287  0.11712032     0.99600
O387        O  0.52404528  0.10087804  0.10409870    -0.81000
O388        O  0.54455619  0.12632918  0.06259208    -0.83600
C389        C  0.53676656  0.14097557  0.07533937     1.04000
O390        O  0.52077362  0.14467670  0.06296939    -0.76400
O391        O  0.48665382  0.14280477  0.02462200    -0.76600
C392        C  0.47714428  0.13645448  0.05558206     1.04000
Cr393      Cr  0.49079283  0.10125945  0.03195004     1.93700
Cr394      Cr  0.53261002  0.10239140  0.04398143     1.93200
Cr395      Cr  0.51211375  0.13546394  0.00667755     1.39100
O396        O  0.51181404  0.11288125  0.02720212    -1.21700
O397        O  0.14944323  0.75320069  0.30244421    -0.83900
O398        O  0.16839915  0.74319171  0.22920240    -0.81000
C399        C  0.17621750  0.72876985  0.24185727     0.99500
O400        O  0.16680892  0.71477343  0.25152653    -0.81000
O401        O  0.13493788  0.69351543  0.26696344    -0.83600
C402        C  0.12824672  0.69521430  0.30479218     1.04100
O403        O  0.12324918  0.71072250  0.31844524    -0.76400
O404        O  0.12092896  0.74827563  0.32170958    -0.76600
C405        C  0.13729233  0.75231852  0.33157662     1.04000
O406        O  0.12092302  0.76773696  0.24860392    -0.83900
O407        O  0.13786794  0.75211716  0.17667283    -0.81000
C408        C  0.14465729  0.73978068  0.15274681     0.99600
O409        O  0.15117289  0.72535802  0.16947357    -0.81000
O410        O  0.11966307  0.70671676  0.18758800    -0.83600
C411        C  0.10396819  0.70462694  0.20417446     1.04000
O412        O  0.10082998  0.71000766  0.24261027    -0.76400
O413        O  0.09986686  0.74719501  0.23995925    -0.76600
C414        C  0.10514157  0.76347421  0.23571776     1.04000
Cr415      Cr  0.14335153  0.75252799  0.23989647     1.93700
Cr416      Cr  0.14251864  0.71150049  0.22129738     1.93200
Cr417      Cr  0.11272739  0.72932880  0.27847122     1.39100
O418        O  0.13290638  0.73089098  0.24694048    -1.21700
O419        O  0.36659742  0.75071271  0.21281188    -0.83900
O420        O  0.36165685  0.78795427  0.21163450    -0.81000
C421        C  0.35522251  0.80333665  0.22198004     0.99500
O422        O  0.34664691  0.80529687  0.25766613    -0.81000
O423        O  0.31531859  0.78224997  0.26424782    -0.83600
C424        C  0.30644879  0.76744592  0.26867375     1.04100
O425        O  0.31380984  0.75386151  0.28684767    -0.76400
O426        O  0.33743676  0.74453417  0.22077952    -0.76600
C427        C  0.35127768  0.74645084  0.19657328     1.04000
O428        O  0.38284514  0.75352610  0.29848170    -0.83900
O429        O  0.37967360  0.79093005  0.29391975    -0.81000
C430        C  0.37426780  0.79605513  0.33110931     0.99600
O431        O  0.35790560  0.79332941  0.34277701    -0.81000
O432        O  0.32670802  0.77296912  0.35189879    -0.83600
C433        C  0.33408357  0.75947290  0.37107956     1.04000
O434        O  0.34177490  0.74705823  0.34908158    -0.76400
O435        O  0.36311194  0.73202702  0.28454845    -0.76600
C436        C  0.37823192  0.73694091  0.30034373     1.04000
Cr437      Cr  0.37106004  0.77055317  0.25603066     1.93700
Cr438      Cr  0.33739893  0.78712475  0.30214169     1.93200
Cr439      Cr  0.33970370  0.74592138  0.28500510     1.39100
O440        O  0.34937630  0.76806972  0.28080802    -1.21700
O441        O  0.98371651  0.60793637  0.47199908    -0.83900
O442        O  0.00228298  0.57811285  0.49899644    -0.81000
C443        C  0.01333047  0.56745582  0.51718527     0.99500
O444        O  0.02651354  0.57419327  0.53893446    -0.81000
O445        O  0.04632444  0.60044609  0.48731668    -0.83600
C446        C  0.04983235  0.61561054  0.46919061     1.04100
O447        O  0.04072989  0.62982434  0.47839227    -0.76400
O448        O  0.00713063  0.62316886  0.44507777    -0.76600
C449        C  0.99254358  0.61439591  0.43973420     1.04000
O450        O  0.98205579  0.61968066  0.56349552    -0.83900
O451        O  0.99879583  0.58889215  0.59016226    -0.81000
C452        C  0.01060029  0.59427565  0.61771390     0.99600
O453        O  0.02527991  0.60145008  0.60525836    -0.81000
O454        O  0.04687993  0.62479520  0.56155560    -0.83600
C455        C  0.03933189  0.63995091  0.57088717     1.04000
O456        O  0.02386129  0.64398792  0.55555268    -0.76400
O457        O  0.98982298  0.64084978  0.51687073    -0.76600
C458        C  0.97998535  0.63546646  0.54825776     1.04000
Cr459      Cr  0.99326264  0.59951306  0.53064841     1.93700
Cr460      Cr  0.03476555  0.60078937  0.54604646     1.93200
Cr461      Cr  0.01528595  0.63283413  0.50097247     1.39100
O462        O  0.01440889  0.61094805  0.52561228    -1.21700
O463        O  0.99095379  0.37256743  0.57668873    -0.83900
O464        O  0.95442108  0.37974277  0.57414587    -0.81000
C465        C  0.93951244  0.38683276  0.56246847     0.99500
O466        O  0.93846684  0.39566282  0.52692321    -0.81000
O467        O  0.96461264  0.42511677  0.51822652    -0.83600
C468        C  0.97977459  0.43278559  0.50931313     1.04100
O469        O  0.99249116  0.42331994  0.49325849    -0.76400
O470        O  0.00008484  0.40066695  0.56217456    -0.76600
C471        C  0.99763707  0.38774515  0.58898516     1.04000
O472        O  0.98773719  0.35423026  0.49232219    -0.83900
O473        O  0.95070165  0.36058055  0.49287943    -0.81000
C474        C  0.94558031  0.36645271  0.45585332     0.99600
O475        O  0.94941636  0.38253188  0.44370999    -0.81000
O476        O  0.97250348  0.41141482  0.43235812    -0.83600
C477        C  0.98461588  0.40215244  0.41290490     1.04000
O478        O  0.99644449  0.39336831  0.43474209    -0.76400
O479        O  0.01032102  0.37273124  0.50400780    -0.76600
C480        C  0.00460049  0.35733821  0.49157082     1.04000
Cr481      Cr  0.97129436  0.36836097  0.53192500     1.93700
Cr482      Cr  0.95752999  0.40280891  0.48264424     1.93200
Cr483      Cr  0.99821175  0.39694656  0.49883575     1.39100
O484        O  0.97545118  0.38934861  0.50487024    -1.21700
O485        O  0.86366078  0.26006137  0.69725982    -0.83900
O486        O  0.87397022  0.29299813  0.73001679    -0.81000
C487        C  0.86075133  0.30370017  0.72196549     0.99500
O488        O  0.84550697  0.30159259  0.74082344    -0.81000
O489        O  0.81787707  0.28402669  0.79216011    -0.83600
C490        C  0.80987201  0.27197352  0.76928355     1.04100
O491        O  0.81904511  0.25961525  0.75144277    -0.76400
O492        O  0.84679302  0.23797682  0.72501293    -0.76600
C493        C  0.85388745  0.24606017  0.69249398     1.04000
O494        O  0.88016086  0.24116252  0.76858955    -0.83900
O495        O  0.88693630  0.27456429  0.80718976    -0.81000
C496        C  0.88455768  0.29023935  0.82323033     0.99600
O497        O  0.87018427  0.29920437  0.81389445    -0.81000
O498        O  0.84472180  0.27982078  0.85859010    -0.83600
C499        C  0.83541779  0.26625740  0.87051011     1.04000
O500        O  0.82938784  0.25486886  0.84275257    -0.76400
O501        O  0.85860418  0.23513465  0.81552630    -0.76600
C502        C  0.87398225  0.23151597  0.79954360     1.04000
Cr503      Cr  0.87456848  0.26727476  0.75277826     1.93700
Cr504      Cr  0.84502486  0.28959304  0.79921750     1.93200
Cr505      Cr  0.83947593  0.24842167  0.78325801     1.39100
O506        O  0.85292893  0.26840704  0.77819244    -1.21700
O507        O  0.64962078  0.26010935  0.79963520    -0.83900
O508        O  0.67107268  0.24853259  0.73173285    -0.81000
C509        C  0.67807248  0.23567318  0.75337246     0.99500
O510        O  0.66877581  0.22137172  0.76097392    -0.81000
O511        O  0.63670201  0.19943409  0.77153875    -0.83600
C512        C  0.62798567  0.20213648  0.80672672     1.04100
O513        O  0.62250002  0.21798503  0.81608903    -0.76400
O514        O  0.62051440  0.25528851  0.81349181    -0.76600
C515        C  0.63650889  0.25927882  0.82641979     1.04000
O516        O  0.62325045  0.27323358  0.73890011    -0.83900
O517        O  0.64206421  0.25526355  0.67225609    -0.81000
C518        C  0.64926504  0.24209238  0.65158501     0.99600
O519        O  0.65670810  0.22899520  0.67223362    -0.81000
O520        O  0.62521673  0.21002753  0.68638860    -0.83600
C521        C  0.60883045  0.20854602  0.69890894     1.04000
O522        O  0.60364395  0.21536469  0.73476617    -0.76400
O523        O  0.60241389  0.25259130  0.72877946    -0.76600
C524        C  0.60745887  0.26898982  0.72622052     1.04000
Cr525      Cr  0.64573338  0.25782506  0.73608777     1.93700
Cr526      Cr  0.64622586  0.21638613  0.72474967     1.93200
Cr527      Cr  0.61386579  0.23545669  0.77122996     1.39100
O528        O  0.63519911  0.23632925  0.74431618    -1.21700
O529        O  0.98942621  0.62355271  0.95469986    -0.83900
O530        O  0.95223720  0.62085291  0.95762164    -0.81000
C531        C  0.93659500  0.61569157  0.96969041     0.99500
O532        O  0.93467714  0.60707136  0.00547452    -0.81000
O533        O  0.95681938  0.57473669  0.01354693    -0.83600
C534        C  0.97132762  0.56543563  0.01854638     1.04100
O535        O  0.98506605  0.57257624  0.03641364    -0.76400
O536        O  0.99463066  0.59439461  0.96687861    -0.76600
C537        C  0.99332640  0.60770935  0.94066275     1.04000
O538        O  0.98850321  0.64121470  0.04061850    -0.83900
O539        O  0.95119880  0.63981485  0.03840874    -0.81000
C540        C  0.94529975  0.63475538  0.07526985     0.99600
O541        O  0.94769083  0.61856922  0.08850958    -0.81000
O542        O  0.96729653  0.58720734  0.10021190    -0.83600
C543        C  0.98121047  0.59441953  0.11810448     1.04000
O544        O  0.99363115  0.60140577  0.09469352    -0.76400
O545        O  0.00895881  0.62070907  0.02613077    -0.76600
C546        C  0.00483775  0.63586764  0.04278783     1.04000
Cr547      Cr  0.97059803  0.62980811  0.99978278     1.93700
Cr548      Cr  0.95300672  0.59749551  0.04969964     1.93200
Cr549      Cr  0.99405538  0.59799187  0.03072208     1.39100
O550        O  0.97230008  0.60843588  0.02641077    -1.21700
O551        O  0.98379796  0.40249955  0.06190184    -0.83900
O552        O  0.99306380  0.42445595  0.99202634    -0.81000
C553        C  0.00654993  0.43340626  0.00630992     0.99500
O554        O  0.02119476  0.42521528  0.01675996    -0.81000
O555        O  0.04539896  0.39524342  0.03152262    -0.83600
C556        C  0.04327639  0.38779801  0.06864126     1.04100
O557        O  0.02785147  0.38174317  0.07976505    -0.76400
O558        O  0.99128885  0.37407235  0.07674020    -0.76600
C559        C  0.98533735  0.38952236  0.08893858     1.04000
O560        O  0.97390861  0.37378882  0.00292503    -0.83900
O561        O  0.98857027  0.39407672  0.93519403    -0.81000
C562        C  0.00071869  0.40209025  0.91292061     0.99600
O563        O  0.01357042  0.41054977  0.93183069    -0.81000
O564        O  0.03496543  0.38087221  0.94829535    -0.83600
C565        C  0.03890242  0.36536693  0.96383782     1.04000
O566        O  0.03400760  0.36105437  0.00207375    -0.76400
O567        O  0.99718597  0.35556030  0.99383500    -0.76600
C568        C  0.98037822  0.35876523  0.98991029     1.04000
Cr569      Cr  0.98633838  0.39817597  0.99869561     1.93700
Cr570      Cr  0.02750071  0.40222665  0.98428109     1.93200
Cr571      Cr  0.01224944  0.36956663  0.03605757     1.39100
O572        O  0.00886412  0.39008611  0.00673583    -1.21700
O573        O  0.86447597  0.73971973  0.81968062    -0.83900
O574        O  0.87274416  0.70713345  0.78360828    -0.81000
C575        C  0.85904760  0.69784335  0.79545058     0.99500
O576        O  0.84347287  0.70087372  0.77865018    -0.81000
O577        O  0.81531098  0.72016475  0.72999574    -0.83600
C578        C  0.80823589  0.73322695  0.75163480     1.04100
O579        O  0.81848743  0.74512123  0.76791721    -0.76400
O580        O  0.84828719  0.76317807  0.79611118    -0.76600
C581        C  0.85492766  0.75365527  0.82719278     1.04000
O582        O  0.88119146  0.75890666  0.74957469    -0.83900
O583        O  0.88482191  0.72582348  0.70659001    -0.81000
C584        C  0.88142592  0.71019173  0.69131746     0.99600
O585        O  0.86655492  0.70214925  0.70145176    -0.81000
O586        O  0.84085209  0.72278141  0.66058465    -0.83600
C587        C  0.83282151  0.73723681  0.64913774     1.04000
O588        O  0.82895179  0.74957903  0.67684414    -0.76400
O589        O  0.85967360  0.76685551  0.70430959    -0.76600
C590        C  0.87542385  0.76920256  0.71950712     1.04000
Cr591      Cr  0.87408609  0.73302127  0.76283133     1.93700
Cr592      Cr  0.84215010  0.71300425  0.71986158     1.93200
Cr593      Cr  0.83984523  0.75459661  0.73653996     1.39100
O594        O  0.85186002  0.73359659  0.73979482    -1.21700
O595        O  0.64353969  0.74254328  0.73979001    -0.83900
O596        O  0.66676777  0.75476696  0.80464593    -0.81000
C597        C  0.67408924  0.76691596  0.78143529     0.99500
O598        O  0.66507501  0.78137558  0.77302994    -0.81000
O599        O  0.63311285  0.80359995  0.75949882    -0.83600
C600        C  0.62359948  0.79996509  0.72581594     1.04100
O601        O  0.61744279  0.78403607  0.72021242    -0.76400
O602        O  0.61420781  0.74703719  0.72992711    -0.76600
C603        C  0.62973750  0.74258679  0.71491469     1.04000
O604        O  0.61803720  0.73182627  0.80516317    -0.83900
O605        O  0.63887779  0.74990186  0.86663161    -0.81000
C606        C  0.64669073  0.76304109  0.88588795     0.99600
O607        O  0.65306911  0.77645749  0.86407829    -0.81000
O608        O  0.62209865  0.79643555  0.84738261    -0.83600
C609        C  0.60555194  0.79779643  0.83566607     1.04000
O610        O  0.60001950  0.79001815  0.80138310    -0.76400
O611        O  0.59812475  0.75316898  0.81643429    -0.76600
C612        C  0.60314867  0.73684999  0.82182443     1.04000
Cr613      Cr  0.64106807  0.74628110  0.80327733     1.93700
Cr614      Cr  0.64267972  0.78798311  0.80934095     1.93200
Cr615      Cr  0.60907763  0.76843072  0.76892531     1.39100
O616        O  0.63090932  0.76785038  0.79369727    -1.21700
O617        O  0.49542051  0.12346499  0.45344692    -0.83900
O618        O  0.45796131  0.12115744  0.45801072    -0.81000
C619        C  0.44248871  0.11621021  0.47182227     0.99500
O620        O  0.44121602  0.10753703  0.50750829    -0.81000
O621        O  0.46410999  0.07562494  0.51684806    -0.83600
C622        C  0.47879094  0.06668690  0.52336476     1.04100
O623        O  0.49212216  0.07435061  0.54175471    -0.76400
O624        O  0.50199199  0.09490894  0.47006747    -0.76600
C625        C  0.50004660  0.10745553  0.44180003     1.04000
O626        O  0.49498566  0.14310298  0.53683171    -0.83900
O627        O  0.45783363  0.14127994  0.53710747    -0.81000
C628        C  0.45210067  0.13667573  0.57445590     0.99600
O629        O  0.45414304  0.12050945  0.58850988    -0.81000
O630        O  0.47390900  0.08915241  0.60197156    -0.83600
C631        C  0.48676469  0.09759199  0.62081392     1.04000
O632        O  0.49955726  0.10449662  0.59813477    -0.76400
O633        O  0.51564249  0.12233907  0.52665606    -0.76600
C634        C  0.51143396  0.13816590  0.53889079     1.04000
Cr635      Cr  0.47684925  0.13063497  0.49845430     1.93700
Cr636      Cr  0.45971463  0.09881329  0.55136118     1.93200
Cr637      Cr  0.50078507  0.09975918  0.53383895     1.39100
O638        O  0.47887252  0.10975644  0.52733316    -1.21700
O639        O  0.48285145  0.90733051  0.56693355    -0.83900
O640        O  0.49212619  0.92529486  0.49193893    -0.81000
C641        C  0.50689598  0.93287411  0.50315876     0.99500
O642        O  0.52076984  0.92317693  0.51250424    -0.81000
O643        O  0.54191056  0.89039849  0.52623035    -0.83600
C644        C  0.54064101  0.88377638  0.56439872     1.04100
O645        O  0.52510067  0.88055951  0.58041567    -0.76400
O646        O  0.48777824  0.87903425  0.58764246    -0.76600
C647        C  0.48475294  0.89565190  0.59700341     1.04000
O648        O  0.46680801  0.87836314  0.51604536    -0.83900
O649        O  0.48167766  0.89439259  0.44153421    -0.81000
C650        C  0.49393881  0.90056209  0.41634374     0.99600
O651        O  0.50829690  0.90766082  0.43196064    -0.81000
O652        O  0.52624268  0.87581764  0.44918903    -0.83600
C653        C  0.52853429  0.86031451  0.46656659     1.04000
O654        O  0.52404091  0.85742247  0.50581730    -0.76400
O655        O  0.48693671  0.85681141  0.50833649    -0.76600
C656        C  0.47064351  0.86216153  0.50526997     1.04000
Cr657      Cr  0.48230730  0.90052384  0.50466548     1.93700
Cr658      Cr  0.52297419  0.89876851  0.48259742     1.93200
Cr659      Cr  0.50568358  0.86991964  0.54331849     1.39100
O660        O  0.50384294  0.88973171  0.51046601    -1.21700
O661        O  0.14663064  0.24298198  0.22698118    -0.83900
O662        O  0.16699246  0.25503227  0.29600025    -0.81000
C663        C  0.17409039  0.26935195  0.28053886     0.99500
O664        O  0.16412313  0.28308433  0.27137902    -0.81000
O665        O  0.13090795  0.30353276  0.25960401    -0.83600
C666        C  0.12329406  0.30116085  0.22290037     1.04100
O667        O  0.11933215  0.28520657  0.21057780    -0.76400
O668        O  0.11779579  0.24764902  0.21012408    -0.76600
C669        C  0.13393524  0.24324267  0.19912283     1.04000
O670        O  0.11976386  0.22911443  0.28568170    -0.83900
O671        O  0.13791542  0.24636813  0.35357251    -0.81000
C672        C  0.14491885  0.25921339  0.37549003     0.99600
O673        O  0.15114505  0.27327900  0.35657803    -0.81000
O674        O  0.11843837  0.29023673  0.34178440    -0.83600
C675        C  0.10222738  0.29129013  0.32764331     1.04000
O676        O  0.09845830  0.28629074  0.28915616    -0.76400
O677        O  0.09816849  0.24923037  0.29286099    -0.76600
C678        C  0.10379955  0.23310964  0.29772822     1.04000
Cr679      Cr  0.14197158  0.24490023  0.28993702     1.93700
Cr680      Cr  0.14055162  0.28615043  0.30501467     1.93200
Cr681      Cr  0.11005601  0.26693036  0.25273448     1.39100
O682        O  0.13088821  0.26617020  0.28209328    -1.21700
O683        O  0.36236875  0.24834126  0.32267901    -0.83900
O684        O  0.35996207  0.21110459  0.32739729    -0.81000
C685        C  0.35370036  0.19540199  0.31940932     0.99500
O686        O  0.34494743  0.19242716  0.28432704    -0.81000
O687        O  0.31339937  0.21503291  0.26807110    -0.83600
C688        C  0.30469155  0.22951750  0.25813401     1.04100
O689        O  0.31257608  0.24179365  0.23665570    -0.76400
O690        O  0.33338104  0.25335264  0.30708543    -0.76600
C691        C  0.34643469  0.25317785  0.33425712     1.04000
O692        O  0.38120104  0.24466317  0.23891700    -0.83900
O693        O  0.37962095  0.20772226  0.24727856    -0.81000
C694        C  0.37473410  0.20099370  0.21117289     0.99600
O695        O  0.35819005  0.20132618  0.19919551    -0.81000
O696        O  0.32771450  0.22094474  0.18011576    -0.83600
C697        C  0.33522656  0.23410899  0.15978204     1.04000
O698        O  0.34234656  0.24728314  0.18062014    -0.76400
O699        O  0.36044066  0.26534138  0.24816088    -0.76600
C700        C  0.37594899  0.26092807  0.23430000     1.04000
Cr701      Cr  0.36914408  0.22804830  0.28197547     1.93700
Cr702      Cr  0.33670558  0.20884272  0.23499059     1.93200
Cr703      Cr  0.33792308  0.25038473  0.24387147     1.39100
O704        O  0.34796991  0.22880192  0.25396711    -1.21700
C705        C  0.26409649  0.25756043  0.29180676     0.14100
C706        C  0.24959525  0.24850261  0.27112982     0.01100
C707        C  0.25304328  0.23157574  0.25066437     0.16000
C708        C  0.27083277  0.22409034  0.25016096     0.25500
C709        C  0.28542796  0.23345791  0.27001317    -0.40900
C710        C  0.28175403  0.25025860  0.29085683     0.32500
C711        C  0.23083624  0.25648264  0.27292995     0.01100
F712        F  0.23923956  0.22247429  0.23055334    -0.13200
F713        F  0.29560244  0.26036533  0.30773390    -0.13700
C714        C  0.22157317  0.26237561  0.23494890     0.16000
C715        C  0.20339944  0.26876746  0.23740452     0.25500
C716        C  0.19430700  0.26932467  0.27784701    -0.40800
C717        C  0.20405248  0.26449262  0.31589442     0.32400
C718        C  0.22207842  0.25821971  0.31348698     0.14100
F719        F  0.22997841  0.26153721  0.19547822    -0.13200
F720        F  0.19557779  0.26460872  0.35538368    -0.13700
F721        F  0.19431824  0.27315909  0.20013282    -0.16000
F722        F  0.23065857  0.25278836  0.35070092    -0.14500
F723        F  0.26131659  0.27402625  0.31118038    -0.14500
F724        F  0.27402913  0.20845532  0.22758668    -0.16000
C725        C  0.41127799  0.13873156  0.38804794     0.14100
C726        C  0.39541673  0.14213835  0.41284906     0.01100
C727        C  0.39456772  0.13538054  0.45582386     0.16000
C728        C  0.40942808  0.12585715  0.47397910     0.25500
C729        C  0.42557383  0.12288199  0.44954836    -0.40900
C730        C  0.42614658  0.12923443  0.40610331     0.32500
C731        C  0.38053350  0.15381626  0.39429408     0.01100
F732        F  0.37950883  0.13840057  0.48071367    -0.13200
F733        F  0.44139000  0.12688548  0.38146044    -0.13700
C734        C  0.37270146  0.14950261  0.35362069     0.16000
C735        C  0.36205894  0.16239066  0.33102905     0.25500
C736        C  0.35903787  0.17994448  0.34871593    -0.40800
C737        C  0.36501882  0.18337611  0.39176491     0.32400
C738        C  0.37570803  0.17046778  0.41428244     0.14100
F739        F  0.37633052  0.13315478  0.33450421    -0.13200
F740        F  0.36152821  0.19973016  0.41101320    -0.13700
F741        F  0.35627773  0.15823713  0.29006321    -0.16000
F742        F  0.38258741  0.17492998  0.45408611    -0.14500
F743        F  0.41281636  0.14555386  0.34691142    -0.14500
F744        F  0.40840502  0.12068249  0.51656287    -0.16000
C745        C  0.47561388  0.01491238  0.52591378     0.14100
C746        C  0.49266137  0.01015982  0.50775862     0.01100
C747        C  0.50370510  0.02390280  0.48999849     0.16000
C748        C  0.49823934  0.04219936  0.49206450     0.25500
C749        C  0.48148833  0.04720690  0.51156948    -0.40900
C750        C  0.47004876  0.03334275  0.52786747     0.32500
C751        C  0.49856482  0.99078502  0.50516143     0.01100
F752        F  0.52003047  0.01961846  0.47153660    -0.13200
F753        F  0.45417268  0.03770379  0.54826713    -0.13700
C754        C  0.49366823  0.98043257  0.46858691     0.16000
C755        C  0.49793081  0.96184226  0.46670785     0.25500
C756        C  0.50714392  0.95313011  0.50155497    -0.40800
C757        C  0.51327450  0.96376518  0.53684356     0.32400
C758        C  0.50898700  0.98254326  0.53863221     0.14100
F759        F  0.48421333  0.98825316  0.43520124    -0.13200
F760        F  0.52231782  0.95580269  0.57065071    -0.13700
F761        F  0.49240257  0.95210219  0.43130869    -0.16000
F762        F  0.51446459  0.99254453  0.57358348    -0.14500
F763        F  0.46462707  0.00172051  0.54279526    -0.14500
F764        F  0.50977352  0.05522212  0.47663662    -0.16000
C765        C  0.59824396  0.82402267  0.63358154     0.14100
C766        C  0.59783008  0.84219561  0.64854207     0.01100
C767        C  0.60835496  0.84684406  0.68534483     0.16000
C768        C  0.61810602  0.83338223  0.70850265     0.25500
C769        C  0.61750257  0.81486399  0.69540710    -0.40900
C770        C  0.60797480  0.81054314  0.65656150     0.32500
C771        C  0.58505619  0.85570222  0.62818852     0.01100
F772        F  0.60862533  0.86437474  0.69988171    -0.13200
F773        F  0.60716661  0.79303490  0.64192869    -0.13700
C774        C  0.57078149  0.86336930  0.65299728     0.16000
C775        C  0.55703087  0.87381161  0.63287014     0.25500
C776        C  0.55728041  0.87694299  0.58745119    -0.40800
C777        C  0.57224743  0.87021552  0.56309805     0.32400
C778        C  0.58590607  0.85965577  0.58325073     0.14100
F779        F  0.56942723  0.85967646  0.69636765    -0.13200
F780        F  0.57294732  0.87251596  0.51907149    -0.13700
F781        F  0.54297022  0.88011778  0.65756365    -0.16000
F782        F  0.59959939  0.85264061  0.55845497    -0.14500
F783        F  0.58814301  0.81900930  0.59831814    -0.14500
F784        F  0.62706012  0.83837330  0.74547585    -0.16000
C785        C  0.75755875  0.73634656  0.72049049     0.14100
C786        C  0.75068602  0.74835909  0.75266986     0.01100
C787        C  0.76257371  0.75392255  0.78619093     0.16000
C788        C  0.78080276  0.74792724  0.78730357     0.25500
C789        C  0.78793270  0.73627246  0.75467261    -0.40900
C790        C  0.77592518  0.73038766  0.72144477     0.32500
C791        C  0.73085604  0.75385754  0.75371807     0.01100
F792        F  0.75645280  0.76498751  0.81862337    -0.13200
F793        F  0.78212340  0.71955803  0.68865862    -0.13700
C794        C  0.71732039  0.74028056  0.75523686     0.16000
C795        C  0.69890850  0.74487478  0.76114277     0.25500
C796        C  0.69329497  0.76326346  0.76648116    -0.40800
C797        C  0.70666566  0.77703144  0.76275287     0.32400
C798        C  0.72527169  0.77237204  0.75652934     0.14100
F799        F  0.72202894  0.72232457  0.75367074    -0.13200
F800        F  0.70193315  0.79486913  0.76748701    -0.13700
F801        F  0.68653304  0.73104981  0.76308586    -0.16000
F802        F  0.73788775  0.78594684  0.75414415    -0.14500
F803        F  0.74659241  0.73076945  0.68727738    -0.14500
F804        F  0.79154373  0.75368421  0.82063528    -0.16000
C805        C  0.07059402  0.36837362  0.16222275     0.14100
C806        C  0.08579972  0.36146904  0.13944373     0.01100
C807        C  0.08867018  0.36692686  0.09601032     0.16000
C808        C  0.07570267  0.37764384  0.07427108     0.25500
C809        C  0.05941363  0.38285518  0.09548548    -0.40900
C810        C  0.05744921  0.37895627  0.14034060     0.32500
C811        C  0.09719616  0.34668573  0.15855375     0.01100
F812        F  0.10343417  0.36070879  0.07363316    -0.13200
F813        F  0.04217872  0.38427462  0.16213419    -0.13700
C814        C  0.09710069  0.32925588  0.13927733     0.16000
C815        C  0.10676483  0.31475207  0.15823043     0.25500
C816        C  0.11665912  0.31728625  0.19737773    -0.40800
C817        C  0.11734466  0.33507192  0.21553072     0.32400
C818        C  0.10759288  0.34955119  0.19642883     0.14100
F819        F  0.08678722  0.32602468  0.10316107    -0.13200
F820        F  0.12672189  0.33838154  0.25299775    -0.13700
F821        F  0.10564090  0.29803273  0.13917751    -0.16000
F822        F  0.10798473  0.36630754  0.21545791    -0.14500
F823        F  0.06764094  0.36355166  0.20450539    -0.14500
F824        F  0.07819454  0.38107798  0.03105425    -0.16000
C825        C  0.89077621  0.63784572  0.94453501     0.14100
C826        C  0.89292279  0.64266142  0.90027565     0.01100
C827        C  0.90845372  0.63630075  0.87781483     0.16000
C828        C  0.92199127  0.62618271  0.89955505     0.25500
C829        C  0.92035308  0.62209786  0.94437957    -0.40900
C830        C  0.90427571  0.62757051  0.96631493     0.32500
C831        C  0.88019489  0.65578501  0.87828417     0.01100
F832        F  0.91117764  0.64100982  0.83537696    -0.13200
F833        F  0.90225713  0.62429368  0.00974710    -0.13700
C834        C  0.87869269  0.67386344  0.89364009     0.16000
C835        C  0.87004374  0.68731519  0.86820793     0.25500
C836        C  0.86242670  0.68294562  0.82730341    -0.40800
C837        C  0.86271818  0.66463947  0.81338005     0.32400
C838        C  0.87152049  0.65117048  0.83866921     0.14100
F839        F  0.88699789  0.67887945  0.93147138    -0.13200
F840        F  0.85605850  0.66013201  0.77340656    -0.13700
F841        F  0.87029701  0.70495734  0.88202403    -0.16000
F842        F  0.87251196  0.63379805  0.82327966    -0.14500
F843        F  0.87593444  0.64371338  0.96716000    -0.14500
F844        F  0.93716843  0.62110960  0.87712045    -0.16000
C845        C  0.99441453  0.48022922  0.96445462     0.14100
C846        C  0.99274282  0.49028847  0.00327399     0.01100
C847        C  0.99822881  0.48214236  0.04300224     0.16000
C848        C  0.00431244  0.46388086  0.04410220     0.25500
C849        C  0.00493147  0.45355939  0.00548893    -0.40900
C850        C  0.00033815  0.46204239  0.96560448     0.32500
C851        C  0.98540144  0.50928109  0.00209462     0.01100
F852        F  0.99744909  0.49182658  0.08075309    -0.13200
F853        F  0.00089957  0.45238287  0.92774882    -0.13700
C854        C  0.96909080  0.51389667  0.02400014     0.16000
C855        C  0.96305920  0.53217868  0.02557850     0.25500
C856        C  0.97331900  0.54606248  0.00538924    -0.40800
C857        C  0.98899123  0.54116874  0.98136833     0.32400
C858        C  0.99492070  0.52301064  0.97954171     0.14100
F859        F  0.95932308  0.50075404  0.04490951    -0.13200
F860        F  0.99933925  0.55427353  0.96207596    -0.13700
F861        F  0.94809447  0.53647349  0.04965636    -0.16000
F862        F  0.01065086  0.51902745  0.95799972    -0.14500
F863        F  0.98951371  0.48776978  0.92556995    -0.14500
F864        F  0.00856975  0.45600994  0.08300896    -0.16000
C865        C  0.56729219  0.18061871  0.66801073     0.14100
C866        C  0.56822969  0.18057628  0.62217630     0.01100
C867        C  0.58305305  0.18924969  0.60141461     0.16000
C868        C  0.59654517  0.19808787  0.62620194     0.25500
C869        C  0.59532079  0.19847883  0.67213484    -0.40900
C870        C  0.58058358  0.18956624  0.69269707     0.32500
C871        C  0.55379381  0.17115546  0.59665597     0.01100
F872        F  0.58422619  0.18953003  0.55713515    -0.13200
F873        F  0.57916777  0.18921231  0.73694764    -0.13700
C874        C  0.53528102  0.17573885  0.60268485     0.16000
C875        C  0.52146707  0.16548154  0.58269008     0.25500
C876        C  0.52591629  0.15045911  0.55601464    -0.40800
C877        C  0.54454305  0.14643551  0.54848532     0.32400
C878        C  0.55830349  0.15664733  0.56871053     0.14100
F879        F  0.53056581  0.18995221  0.62885906    -0.13200
F880        F  0.54953280  0.13232868  0.52225621    -0.13700
F881        F  0.50375941  0.16976512  0.59118508    -0.16000
F882        F  0.57603808  0.15175884  0.56266101    -0.14500
F883        F  0.55360404  0.17166756  0.68903081    -0.14500
F884        F  0.61041420  0.20677846  0.60522783    -0.16000
C885        C  0.93005873  0.29818277  0.88058312     0.14100
C886        C  0.92687545  0.31485838  0.90185164     0.01100
C887        C  0.90958797  0.32311963  0.89847515     0.16000
C888        C  0.89576435  0.31502397  0.87357367     0.25500
C889        C  0.89896769  0.29845286  0.85133711    -0.40900
C890        C  0.91627036  0.29001226  0.85565234     0.32500
C891        C  0.94172427  0.32412239  0.92612115     0.01100
F892        F  0.90625142  0.33938042  0.91831040    -0.13200
F893        F  0.92006607  0.27398922  0.83519867    -0.13700
C894        C  0.95765740  0.32976753  0.90420134     0.16000
C895        C  0.97087256  0.34014727  0.92599926     0.25500
C896        C  0.96812976  0.34533263  0.96963421    -0.40800
C897        C  0.95255858  0.33917330  0.99203101     0.32400
C898        C  0.93953333  0.32844988  0.97055346     0.14100
F899        F  0.95991940  0.32610143  0.86105890    -0.13200
F900        F  0.94991326  0.34372149  0.03456070    -0.13700
F901        F  0.98577618  0.34613245  0.90374401    -0.16000
F902        F  0.92460468  0.32254852  0.99283244    -0.14500
F903        F  0.94657225  0.28979344  0.88398669    -0.14500
F904        F  0.87928990  0.32354124  0.87116399    -0.16000
C905        C  0.76195636  0.26342039  0.80974754     0.14100
C906        C  0.75331673  0.25679590  0.77176534     0.01100
C907        C  0.76282748  0.25764493  0.73183831     0.16000
C908        C  0.78087333  0.26405695  0.73033000     0.25500
C909        C  0.78970606  0.27012067  0.76851179    -0.40900
C910        C  0.77990490  0.27015844  0.80806551     0.32500
C911        C  0.73420289  0.24966402  0.77335975     0.01100
F912        F  0.75466658  0.25216660  0.69420704    -0.13200
F913        F  0.78820249  0.27529113  0.84582022    -0.13700
C914        C  0.72013914  0.26075853  0.78980500     0.16000
C915        C  0.70191742  0.25518468  0.78690201     0.25500
C916        C  0.69722136  0.23832413  0.76768900    -0.40800
C917        C  0.71127347  0.22671705  0.75331097     0.32400
C918        C  0.72964598  0.23233374  0.75614848     0.14100
F919        F  0.72389189  0.27766811  0.80575011    -0.13200
F920        F  0.70715044  0.21071283  0.73318286    -0.13700
F921        F  0.68867166  0.26694268  0.80016513    -0.16000
F922        F  0.74293636  0.22112930  0.74063704    -0.14500
F923        F  0.75333558  0.26252045  0.84897202    -0.14500
F924        F  0.78994461  0.26389187  0.69164657    -0.16000
C925        C  0.96647627  0.40362073  0.29763022     0.14100
C926        C  0.98179292  0.39818817  0.27379507     0.01100
C927        C  0.99837563  0.39454983  0.29518748     0.16000
C928        C  0.99957265  0.39612298  0.34058623     0.25500
C929        C  0.98415402  0.40146925  0.36484607    -0.40900
C930        C  0.96760514  0.40532481  0.34278383     0.32500
C931        C  0.98049113  0.39642288  0.22635176     0.01100
F932        F  0.01334384  0.38944937  0.27198806    -0.13200
F933        F  0.95224289  0.41012442  0.36490103    -0.13700
C934        C  0.98391731  0.41161150  0.19970658     0.16000
C935        C  0.98423777  0.40965752  0.15441466     0.25500
C936        C  0.98120938  0.39239162  0.13542410    -0.40800
C937        C  0.97674734  0.37740982  0.16239551     0.32400
C938        C  0.97636086  0.37945919  0.20767589     0.14100
F939        F  0.98769590  0.42813848  0.21775382    -0.13200
F940        F  0.97325659  0.36069169  0.14502223    -0.13700
F941        F  0.98879278  0.42434565  0.12948471    -0.16000
F942        F  0.97250262  0.36480779  0.23342023    -0.14500
F943        F  0.95034945  0.40703575  0.27712356    -0.14500
F944        F  0.01576794  0.39257604  0.36062035    -0.16000
C945        C  0.98961758  0.38737145  0.79760094     0.14100
C946        C  0.00298235  0.39686502  0.77382983     0.01100
C947        C  0.01488410  0.40882555  0.79532532     0.16000
C948        C  0.01367567  0.41109603  0.84036879     0.25500
C949        C  0.00050201  0.40132201  0.86475218    -0.40900
C950        C  0.98830084  0.38962096  0.84270794     0.32500
C951        C  0.00390787  0.39489818  0.72621654     0.01100
F952        F  0.02791319  0.41806962  0.77268662    -0.13200
F953        F  0.97526944  0.38010965  0.86465175    -0.13700
C954        C  0.99998714  0.40996474  0.69940808     0.16000
C955        C  0.99899107  0.40782263  0.65427575     0.25500
C956        C  0.00180843  0.39050760  0.63543337    -0.40800
C957        C  0.00655060  0.37559318  0.66228448     0.32400
C958        C  0.00765300  0.37781290  0.70747290     0.14100
F959        F  0.99608042  0.42651703  0.71719529    -0.13200
F960        F  0.00978175  0.35882902  0.64488213    -0.13700
F961        F  0.99395403  0.42239403  0.62941108    -0.16000
F962        F  0.01200582  0.36324690  0.73308101    -0.14500
F963        F  0.97772083  0.37603789  0.77696037    -0.14500
F964        F  0.02561053  0.42272270  0.85993689    -0.16000
C965        C  0.02602201  0.31614833  0.43516402     0.14100
C966        C  0.04465606  0.32095093  0.43621027     0.01100
C967        C  0.05004396  0.33644782  0.45987007     0.16000
C968        C  0.03706530  0.34750788  0.48000871     0.25500
C969        C  0.01822808  0.34366429  0.47623702    -0.40900
C970        C  0.01285783  0.32739049  0.45502544     0.32500
C971        C  0.05844567  0.31125053  0.40928784     0.01100
F972        F  0.06787161  0.34159324  0.46116381    -0.13200
F973        F  0.99495016  0.32270711  0.45212475    -0.13700
C974        C  0.05639158  0.31065811  0.36367847     0.16000
C975        C  0.07057884  0.30422014  0.33725318     0.25500
C976        C  0.08724602  0.29830741  0.35585023    -0.40800
C977        C  0.08906791  0.29845522  0.40171928     0.32400
C978        C  0.07476936  0.30476864  0.42809807     0.14100
F979        F  0.04096114  0.31720149  0.34447385    -0.13200
F980        F  0.10460792  0.29236786  0.42119257    -0.13700
F981        F  0.06812061  0.30438413  0.29324663    -0.16000
F982        F  0.07695590  0.30479412  0.47217810    -0.14500
F983        F  0.02052423  0.30080806  0.41393012    -0.14500
F984        F  0.04313635  0.36246433  0.50196730    -0.16000
C985        C  0.88052171  0.33104037  0.62944431     0.14100
C986        C  0.88192815  0.34849144  0.64858567     0.01100
C987        C  0.87326659  0.35165306  0.68893788     0.16000
C988        C  0.86454219  0.33729897  0.71118206     0.25500
C989        C  0.86440010  0.31957762  0.69344119    -0.40900
C990        C  0.87191750  0.31671536  0.65180487     0.32500
C991        C  0.89448773  0.36233581  0.62921267     0.01100
F992        F  0.87417875  0.36839438  0.70792838    -0.13200
F993        F  0.87197365  0.29969939  0.63407625    -0.13700
C994        C  0.89263925  0.36779279  0.58533510     0.16000
C995        C  0.90657875  0.37770598  0.56464842     0.25500
C996        C  0.92275388  0.38216404  0.58739175    -0.40800
C997        C  0.92388655  0.37802577  0.63223552     0.32400
C998        C  0.90988987  0.36824030  0.65295552     0.14100
F999        F  0.87782326  0.36253446  0.56172608    -0.13200
F1000       F  0.93913032  0.38238434  0.65534965    -0.13700
F1001       F  0.90501580  0.38123990  0.52121197    -0.16000
F1002       F  0.91218459  0.36313324  0.69529437    -0.14500
F1003       F  0.88886945  0.32742095  0.59079080    -0.14500
F1004       F  0.85782281  0.34030815  0.75188396    -0.16000
C1005       C  0.98654515  0.59362048  0.72709136     0.14100
C1006       C  0.00142711  0.59581034  0.75569456     0.01100
C1007       C  0.01924315  0.59617662  0.73897718     0.16000
C1008       C  0.02222501  0.59455186  0.69430884     0.25500
C1009       C  0.00735644  0.59286966  0.66517256    -0.40900
C1010       C  0.98947577  0.59214921  0.68206169     0.32500
C1011       C  0.99862067  0.59836667  0.80293386     0.01100
F1012       F  0.03377715  0.59891076  0.76586312    -0.13200
F1013       F  0.97480323  0.59095209  0.65499893    -0.13700
C1014       C  0.00703967  0.58646698  0.83287827     0.16000
C1015       C  0.00576847  0.58971916  0.87767601     0.25500
C1016       C  0.99586501  0.60485232  0.89331152    -0.40800
C1017       C  0.98733492  0.61670303  0.86309043     0.32400
C1018       C  0.98874665  0.61348703  0.81829598     0.14100
F1019       F  0.01658871  0.57171083  0.81858362    -0.13200
F1020       F  0.97735222  0.63127074  0.87677559    -0.13700
F1021       F  0.01459897  0.57828775  0.90557461    -0.16000
F1022       F  0.98083976  0.62540009  0.78986389    -0.14500
F1023       F  0.96918433  0.59322112  0.74272700    -0.14500
F1024       F  0.03973838  0.59512047  0.67961832    -0.16000
C1025       C  0.96762413  0.59346940  0.23761697     0.14100
C1026       C  0.98329819  0.60058212  0.25759614     0.01100
C1027       C  0.99879693  0.60445483  0.23222062     0.16000
C1028       C  0.99846349  0.60172718  0.18704875     0.25500
C1029       C  0.98251853  0.59512127  0.16644442    -0.40900
C1030       C  0.96718083  0.59076042  0.19249215     0.32500
C1031       C  0.98338383  0.60432804  0.30486495     0.01100
F1032       F  0.01424326  0.61099360  0.25127268    -0.13200
F1033       F  0.95141970  0.58455937  0.17433650    -0.13700
C1034       C  0.98225757  0.58988362  0.33506189     0.16000
C1035       C  0.98371776  0.59335925  0.37982488     0.25500
C1036       C  0.98644067  0.61129829  0.39473205    -0.40800
C1037       C  0.98682264  0.62581752  0.36456447     0.32400
C1038       C  0.98519934  0.62235917  0.31990304     0.14100
F1039       F  0.98086399  0.57233951  0.32099925    -0.13200
F1040       F  0.98940441  0.64327524  0.37836188    -0.13700
F1041       F  0.98406541  0.57908320  0.40824542    -0.16000
F1042       F  0.98585428  0.63653726  0.29119266    -0.14500
F1043       F  0.95247205  0.58981048  0.26170317    -0.14500
F1044       F  0.01366720  0.60586524  0.16358442    -0.16000
C1045       C  0.94755165  0.65728366  0.62919335     0.14100
C1046       C  0.93790196  0.66953174  0.60241048     0.01100
C1047       C  0.94217489  0.67074048  0.55782300     0.16000
C1048       C  0.95603185  0.65981061  0.54012206     0.25500
C1049       C  0.96569583  0.64743482  0.56684128    -0.40900
C1050       C  0.96126099  0.64622122  0.61155985     0.32500
C1051       C  0.92319219  0.68081576  0.62125594     0.01100
F1052       F  0.93281122  0.68240652  0.53146142    -0.13200
F1053       F  0.97036977  0.63450643  0.63837552    -0.13700
C1054       C  0.92735875  0.69742239  0.64167533     0.16000
C1055       C  0.91367998  0.70737065  0.66296905     0.25500
C1056       C  0.89552776  0.70071480  0.66457637    -0.40800
C1057       C  0.89136888  0.68432457  0.64245798     0.32400
C1058       C  0.90511142  0.67448325  0.62105891     0.14100
F1059       F  0.94481492  0.70375672  0.64190769    -0.13200
F1060       F  0.87406065  0.67764106  0.64192837    -0.13700
F1061       F  0.91845211  0.72316539  0.68328121    -0.16000
F1062       F  0.90088539  0.65847428  0.60105894    -0.14500
F1063       F  0.94359391  0.65600087  0.67244622    -0.14500
F1064       F  0.95954709  0.66084854  0.49663066    -0.16000
C1065       C  0.98661655  0.52288978  0.50615913     0.14100
C1066       C  0.99847035  0.51001257  0.52478778     0.01100
C1067       C  0.01582011  0.51584286  0.53922150     0.16000
C1068       C  0.02104993  0.53434145  0.53576426     0.25500
C1069       C  0.00911677  0.54736563  0.51706785    -0.40900
C1070       C  0.99183082  0.54122603  0.50204584     0.32500
C1071       C  0.99358694  0.49023230  0.52329854     0.01100
F1072       F  0.02771621  0.50356616  0.55664682    -0.13200
F1073       F  0.97962605  0.55298400  0.48379967    -0.13700
C1074       C  0.00239038  0.47907988  0.49282820     0.16000
C1075       C  0.99733203  0.46081413  0.48782311     0.25500
C1076       C  0.98341430  0.45286766  0.51388491    -0.40800
C1077       C  0.97440013  0.46410952  0.54441323     0.32400
C1078       C  0.97937926  0.48270367  0.54885519     0.14100
F1079       F  0.01567212  0.48609232  0.46671630    -0.13200
F1080       F  0.96113650  0.45707735  0.57047270    -0.13700
F1081       F  0.00601082  0.45098896  0.45642618    -0.16000
F1082       F  0.97049428  0.49330942  0.57836133    -0.14500
F1083       F  0.97004089  0.51757705  0.49071281    -0.14500
F1084       F  0.03778396  0.53943228  0.55060266    -0.16000
C1085       C  0.39905411  0.81222163  0.43373838     0.14100
C1086       C  0.41463460  0.82068638  0.41584650     0.01100
C1087       C  0.41650857  0.82145902  0.37019804     0.16000
C1088       C  0.40320707  0.81385113  0.34291222     0.25500
C1089       C  0.38760183  0.80524040  0.36058721    -0.40900
C1090       C  0.38563571  0.80459517  0.40639413     0.32500
C1091       C  0.42868112  0.82945746  0.44412228     0.01100
F1092       F  0.43113671  0.82995236  0.35187457    -0.13200
F1093       F  0.37105585  0.79606517  0.42480351    -0.13700
C1094       C  0.44718083  0.82435346  0.44093902     0.16000
C1095       C  0.46076529  0.83438913  0.46257470     0.25500
C1096       C  0.45613199  0.84983582  0.48784083    -0.40800
C1097       C  0.43746317  0.85420680  0.49306066     0.32400
C1098       C  0.42391715  0.84412650  0.47142018     0.14100
F1099       F  0.45215273  0.80990176  0.41578622    -0.13200
F1100       F  0.43226427  0.86855250  0.51826622    -0.13700
F1101       F  0.47851427  0.82948642  0.45684870    -0.16000
F1102       F  0.40617617  0.84935343  0.47524584    -0.14500
F1103       F  0.39704681  0.81096565  0.47773915    -0.14500
F1104       F  0.40555699  0.81516606  0.29898679    -0.16000
C1105       C  0.09715480  0.62851065  0.43596589     0.14100
C1106       C  0.09382681  0.63576889  0.39409289     0.01100
C1107       C  0.07677685  0.63253245  0.37406213     0.16000
C1108       C  0.06279610  0.62377561  0.39715441     0.25500
C1109       C  0.06566914  0.61798725  0.44035141    -0.40900
C1110       C  0.08311691  0.61977583  0.45905484     0.32500
C1111       C  0.10667031  0.64914250  0.37423698     0.01100
F1112       F  0.07300858  0.63949717  0.33386479    -0.13200
F1113       F  0.08595574  0.61494395  0.50139342    -0.13700
C1114       C  0.11242959  0.64718735  0.33075268     0.16000
C1115       C  0.12096971  0.66171734  0.30907379     0.25500
C1116       C  0.12396030  0.67854194  0.33063014    -0.40800
C1117       C  0.11970865  0.67982977  0.37532676     0.32400
C1118       C  0.11107271  0.66531540  0.39685248     0.14100
F1119       F  0.10879222  0.63156294  0.30844056    -0.13200
F1120       F  0.12292008  0.69553972  0.39763467    -0.13700
F1121       F  0.12479875  0.65975225  0.26590962    -0.16000
F1122       F  0.10562345  0.66770929  0.43885313    -0.14500
F1123       F  0.11357997  0.63110275  0.45571509    -0.14500
F1124       F  0.04592392  0.62245629  0.37883339    -0.16000
C1125       C  0.04937281  0.64859491  0.09890297     0.14100
C1126       C  0.04631330  0.66691639  0.11017767     0.01100
C1127       C  0.02957610  0.67516748  0.09908685     0.16000
C1128       C  0.01613443  0.66525901  0.07659897     0.25500
C1129       C  0.01919251  0.64685707  0.06500050    -0.40900
C1130       C  0.03603896  0.63867184  0.07647821     0.32500
C1131       C  0.06071466  0.67730064  0.13342187     0.01100
F1132       F  0.02636069  0.69291572  0.10954560    -0.13200
F1133       F  0.03957439  0.62088341  0.06694056    -0.13700
C1134       C  0.07778040  0.68024455  0.11363780     0.16000
C1135       C  0.09176509  0.68930066  0.13615973     0.25500
C1136       C  0.08899984  0.69549134  0.17928180    -0.40800
C1137       C  0.07164580  0.69271888  0.19868298     0.32400
C1138       C  0.05771570  0.68371092  0.17595097     0.14100
F1139       F  0.08086939  0.67434842  0.07225314    -0.13200
F1140       F  0.06806453  0.69851802  0.23993518    -0.13700
F1141       F  0.10799300  0.69191953  0.11559955    -0.16000
F1142       F  0.04141688  0.68077177  0.19601516    -0.14500
F1143       F  0.06520147  0.64015743  0.11055283    -0.14500
F1144       F  0.00024856  0.67376397  0.06581206    -0.16000
C1145       C  0.26571609  0.74420922  0.21926587     0.14100
C1146       C  0.25156180  0.75019166  0.24683076     0.01100
C1147       C  0.25519775  0.76441649  0.27662236     0.16000
C1148       C  0.27290787  0.77172080  0.28057392     0.25500
C1149       C  0.28725011  0.76502283  0.25459703    -0.40900
C1150       C  0.28336613  0.75147677  0.22329861     0.32500
C1151       C  0.23304096  0.74167988  0.24435963     0.01100
F1152       F  0.24166524  0.77092392  0.30265493    -0.13200
F1153       F  0.29702792  0.74440125  0.19851797    -0.13700
C1154       C  0.22492774  0.73342590  0.28132666     0.16000
C1155       C  0.20673777  0.72714048  0.27978901     0.25500
C1156       C  0.19644485  0.72907210  0.24129764    -0.40800
C1157       C  0.20504796  0.73605508  0.20361607     0.32400
C1158       C  0.22309613  0.74230376  0.20511193     0.14100
F1159       F  0.23445393  0.73197278  0.31926706    -0.13200
F1160       F  0.19544802  0.73799254  0.16583976    -0.13700
F1161       F  0.19881751  0.72047060  0.31660128    -0.16000
F1162       F  0.23042131  0.75013161  0.16886159    -0.14500
F1163       F  0.26271423  0.73054084  0.19014762    -0.14500
F1164       F  0.27634436  0.78431742  0.31204469    -0.16000
C1165       C  0.51292676  0.08373460  0.33550017     0.14100
C1166       C  0.50375279  0.09466301  0.30456970     0.01100
C1167       C  0.49429002  0.11024788  0.31879842     0.16000
C1168       C  0.49362534  0.11465662  0.36314336     0.25500
C1169       C  0.50243332  0.10352925  0.39451326    -0.40900
C1170       C  0.51227777  0.08811413  0.38006868     0.32500
C1171       C  0.50518522  0.09087113  0.25708971     0.01100
F1172       F  0.48596975  0.12148981  0.28949921    -0.13200
F1173       F  0.52153044  0.07743379  0.40888834    -0.13700
C1174       C  0.48944204  0.08860731  0.23110027     0.16000
C1175       C  0.49079710  0.08805509  0.18532901     0.25500
C1176       C  0.50796328  0.08978991  0.16490876    -0.40800
C1177       C  0.52377158  0.09064715  0.19149707     0.32400
C1178       C  0.52235391  0.09133997  0.23690128     0.14100
F1179       F  0.47269834  0.08759647  0.25007695    -0.13200
F1180       F  0.54072994  0.09166193  0.17359770    -0.13700
F1181       F  0.47526104  0.08692728  0.16118208    -0.16000
F1182       F  0.53776167  0.09374793  0.26102887    -0.14500
F1183       F  0.52245359  0.06875902  0.32252184    -0.14500
F1184       F  0.48397537  0.12968479  0.37526834    -0.16000
C1185       C  0.47502691  0.09691161  0.83677135     0.14100
C1186       C  0.48157533  0.10999630  0.80683274     0.01100
C1187       C  0.48739086  0.12707625  0.82218551     0.16000
C1188       C  0.48821051  0.13048959  0.86691534     0.25500
C1189       C  0.48320966  0.11684650  0.89726612    -0.40900
C1190       C  0.47579458  0.10033465  0.88181128     0.32500
C1191       C  0.48313526  0.10575755  0.75975826     0.01100
F1192       F  0.49289007  0.14026089  0.79375683    -0.13200
F1193       F  0.47077859  0.08694109  0.91015054    -0.13700
C1194       C  0.46752081  0.10155884  0.73531319     0.16000
C1195       C  0.46888293  0.09843757  0.69047240     0.25500
C1196       C  0.48595391  0.09964859  0.66894824    -0.40800
C1197       C  0.50163295  0.10371893  0.69365756     0.32400
C1198       C  0.50024116  0.10660563  0.73875764     0.14100
F1199       F  0.45080047  0.10121639  0.75457449    -0.13200
F1200       F  0.51829085  0.10483993  0.67431502    -0.13700
F1201       F  0.45323925  0.09510847  0.66789134    -0.16000
F1202       F  0.51561796  0.11024713  0.76206686    -0.14500
F1203       F  0.46904292  0.08038556  0.82255161    -0.14500
F1204       F  0.49480356  0.14687444  0.88062067    -0.16000
C1205       C  0.42075123  0.19264890  0.15852997     0.14100
C1206       C  0.41746205  0.17673501  0.13432225     0.01100
C1207       C  0.39968832  0.16938470  0.13306269     0.16000
C1208       C  0.38550676  0.17752675  0.15687776     0.25500
C1209       C  0.38901133  0.19295831  0.18288429    -0.40900
C1210       C  0.40668799  0.20067183  0.18265805     0.32500
C1211       C  0.43288121  0.16684645  0.11390346     0.01100
F1212       F  0.39621182  0.15406403  0.10947798    -0.13200
F1213       F  0.41039878  0.21601926  0.20596713    -0.13700
C1214       C  0.43761511  0.14946039  0.12952153     0.16000
C1215       C  0.45214981  0.13984328  0.11115476     0.25500
C1216       C  0.46232371  0.14738766  0.07623334    -0.40800
C1217       C  0.45780555  0.16510406  0.06131138     0.32400
C1218       C  0.44323850  0.17476850  0.08015339     0.14100
F1219       F  0.42827824  0.14186084  0.16333721    -0.13200
F1220       F  0.46733444  0.17308579  0.02832567    -0.13700
F1221       F  0.45618753  0.12310585  0.12788115    -0.16000
F1222       F  0.43905756  0.19174200  0.06506528    -0.14500
F1223       F  0.43779841  0.19996684  0.16036526    -0.14500
F1224       F  0.36861692  0.16984466  0.15606458    -0.16000
C1225       C  0.57178874  0.14434618  0.87971084     0.14100
C1226       C  0.58969431  0.14453229  0.89628504     0.01100
C1227       C  0.59395827  0.13354167  0.93268846     0.16000
C1228       C  0.58017374  0.12343289  0.95387286     0.25500
C1229       C  0.56194672  0.12440661  0.93914940    -0.40900
C1230       C  0.55804329  0.13447823  0.90105641     0.32500
C1231       C  0.60301380  0.15787941  0.87816519     0.01100
F1232       F  0.61119443  0.13348199  0.94918831    -0.13200
F1233       F  0.54053659  0.13596712  0.88662154    -0.13700
C1234       C  0.60477776  0.17520153  0.89749351     0.16000
C1235       C  0.61418317  0.18929848  0.87595239     0.25500
C1236       C  0.62210061  0.18633955  0.83447149    -0.40800
C1237       C  0.62135094  0.16851250  0.81671746     0.32400
C1238       C  0.61179306  0.15450636  0.83825899     0.14100
F1239       F  0.59627371  0.17882813  0.93594645    -0.13200
F1240       F  0.62856503  0.16490774  0.77679180    -0.13700
F1241       F  0.61461701  0.20611522  0.89470600    -0.16000
F1242       F  0.61020293  0.13789457  0.81890036    -0.14500
F1243       F  0.56731542  0.15493182  0.84477598    -0.14500
F1244       F  0.58427609  0.11421174  0.99117413    -0.16000
C1245       C  0.50039999  0.91046283  0.80626561     0.14100
C1246       C  0.48649521  0.91662773  0.77817692     0.01100
C1247       C  0.47082879  0.92489989  0.79558769     0.16000
C1248       C  0.46832521  0.92552242  0.84073699     0.25500
C1249       C  0.48164750  0.91821681  0.86891215    -0.40900
C1250       C  0.49805465  0.91141340  0.85153921     0.32500
C1251       C  0.48665185  0.91151030  0.73176674     0.01100
F1252       F  0.45723048  0.93080412  0.76879307    -0.13200
F1253       F  0.51088359  0.90389119  0.87812259    -0.13700
C1254       C  0.48320248  0.89327678  0.72033293     0.16000
C1255       C  0.48194581  0.88822505  0.67655217     0.25500
C1256       C  0.48418808  0.90136925  0.64329034    -0.40800
C1257       C  0.48767794  0.91972346  0.65499308     0.32400
C1258       C  0.48880493  0.92473559  0.69900107     0.14100
F1259       F  0.48070981  0.88039228  0.75180619    -0.13200
F1260       F  0.49060967  0.93272268  0.62401011    -0.13700
F1261       F  0.47844467  0.87045243  0.66684925    -0.16000
F1262       F  0.49223474  0.94241985  0.70970507    -0.14500
F1263       F  0.51558116  0.90230258  0.78979449    -0.14500
F1264       F  0.45233322  0.93207032  0.85692936    -0.16000
C1265       C  0.50683910  0.89922656  0.29739399     0.14100
C1266       C  0.48978841  0.89778616  0.27709634     0.01100
C1267       C  0.47378388  0.89728411  0.30244952     0.16000
C1268       C  0.47491208  0.89825722  0.34804197     0.25500
C1269       C  0.49209172  0.89973058  0.36848232    -0.40900
C1270       C  0.50803248  0.90017878  0.34257207     0.32500
C1271       C  0.48912279  0.89558750  0.22953559     0.01100
F1272       F  0.45714660  0.89588005  0.28299828    -0.13200
F1273       F  0.52494176  0.90089488  0.36088762    -0.13700
C1274       C  0.48367752  0.87881522  0.21188641     0.16000
C1275       C  0.48429530  0.87608952  0.16695408     0.25500
C1276       C  0.49017775  0.89022586  0.13889565    -0.40800
C1277       C  0.49604047  0.90690988  0.15676815     0.32400
C1278       C  0.49552289  0.90955510  0.20193056     0.14100
F1279       F  0.47800860  0.86498740  0.23830846    -0.13200
F1280       F  0.50135377  0.92093020  0.13054046    -0.13700
F1281       F  0.47896577  0.85963493  0.15080792    -0.16000
F1282       F  0.50090573  0.92585422  0.21879122    -0.14500
F1283       F  0.52244177  0.89904008  0.27334941    -0.14500
F1284       F  0.45929012  0.89795264  0.37197257    -0.16000
C1285       C  0.53809041  0.83197180  0.95477946     0.14100
C1286       C  0.55163506  0.84058948  0.92957123     0.01100
C1287       C  0.55083867  0.85958134  0.92335480     0.16000
C1288       C  0.53663107  0.86981643  0.94171049     0.25500
C1289       C  0.52276178  0.86120189  0.96643311    -0.40900
C1290       C  0.52378205  0.84212462  0.97296450     0.32500
C1291       C  0.56568988  0.82954872  0.90686230     0.01100
F1292       F  0.56345221  0.86814223  0.89801183    -0.13200
F1293       F  0.51069503  0.83312519  0.99593812    -0.13700
C1294       C  0.56021330  0.81672183  0.87555914     0.16000
C1295       C  0.57314894  0.80634085  0.85318861     0.25500
C1296       C  0.59205243  0.80861478  0.86130818    -0.40800
C1297       C  0.59753622  0.82144827  0.89307625     0.32400
C1298       C  0.58443451  0.83187776  0.91552062     0.14100
F1299       F  0.54221623  0.81449944  0.86591674    -0.13200
F1300       F  0.61551927  0.82416380  0.90194094    -0.13700
F1301       F  0.56698844  0.79396295  0.82360051    -0.16000
F1302       F  0.59001550  0.84417937  0.94590662    -0.14500
F1303       F  0.53859735  0.81359746  0.96124887    -0.14500
F1304       F  0.53645132  0.88815993  0.93479239    -0.16000
C1305       C  0.38637206  0.86984406  0.08705612     0.14100
C1306       C  0.39103961  0.86047813  0.12581207     0.01100
C1307       C  0.40902013  0.86196560  0.14182206     0.16000
C1308       C  0.42227733  0.87163908  0.11839825     0.25500
C1309       C  0.41794300  0.88009116  0.07842841    -0.40900
C1310       C  0.39974463  0.87961052  0.06354054     0.32500
C1311       C  0.37799638  0.84781526  0.14801256     0.01100
F1312       F  0.41415470  0.85280339  0.17849861    -0.13200
F1313       F  0.39527040  0.88729122  0.02454334    -0.13700
C1314       C  0.37128511  0.83224525  0.12619775     0.16000
C1315       C  0.36245423  0.81824412  0.14956842     0.25500
C1316       C  0.36006845  0.81960309  0.19512417    -0.40800
C1317       C  0.36548950  0.83584174  0.21617033     0.32400
C1318       C  0.37437334  0.84974859  0.19288913     0.14100
F1319       F  0.37450462  0.82992852  0.08286695    -0.13200
F1320       F  0.36377428  0.83757487  0.26015181    -0.13700
F1321       F  0.35689348  0.80304239  0.12793758    -0.16000
F1322       F  0.38045482  0.86468805  0.21479593    -0.14500
F1323       F  0.36907385  0.86890028  0.07110090    -0.14500
F1324       F  0.43977757  0.87165673  0.13324645    -0.16000
C1325       C  0.48577234  0.98307842  0.05475312     0.14100
C1326       C  0.48587605  0.99320650  0.01555805     0.01100
C1327       C  0.47826874  0.98512526  0.97790372     0.16000
C1328       C  0.47107124  0.96729529  0.97913015     0.25500
C1329       C  0.47138152  0.95694724  0.01804480    -0.40900
C1330       C  0.47872078  0.96515285  0.05592733     0.32500
C1331       C  0.49288720  0.01251720  0.01409490     0.01100
F1332       F  0.47843556  0.99430282  0.93928409    -0.13200
F1333       F  0.47930329  0.95567231  0.09410883    -0.13700
C1334       C  0.51112162  0.01706361  0.02484911     0.16000
C1335       C  0.51725062  0.03542687  0.02324926     0.25500
C1336       C  0.50530515  0.04965109  0.01051020    -0.40800
C1337       C  0.48707233  0.04480532  0.99952553     0.32400
C1338       C  0.48104490  0.02665821  0.00151878     0.14100
F1339       F  0.52306391  0.00369158  0.03647758    -0.13200
F1340       F  0.47454743  0.05772616  0.98838076    -0.13700
F1341       F  0.53482198  0.03923691  0.03419141    -0.16000
F1342       F  0.46324251  0.02296503  0.99242992    -0.14500
F1343       F  0.49241143  0.99058476  0.09206821    -0.14500
F1344       F  0.46498063  0.95970670  0.94135989    -0.16000
C1345       C  0.65634300  0.27444065  0.03364757     0.14100
C1346       C  0.64587942  0.26113061  0.01244444     0.01100
C1347       C  0.63604220  0.24829244  0.03703956     0.16000
C1348       C  0.63609081  0.24917071  0.08263754     0.25500
C1349       C  0.64596645  0.26304160  0.10431251    -0.40900
C1350       C  0.65639339  0.27545894  0.07917586     0.32500
C1351       C  0.64404616  0.26158408  0.96466300     0.01100
F1352       F  0.62606772  0.23514443  0.01673525    -0.13200
F1353       F  0.66636555  0.28888788  0.09837899    -0.13700
C1354       C  0.65827865  0.25542169  0.93783543     0.16000
C1355       C  0.65618347  0.25554733  0.89245220     0.25500
C1356       C  0.63980742  0.26191244  0.87343948    -0.40800
C1357       C  0.62575286  0.26846415  0.90056728     0.32400
C1358       C  0.62788663  0.26829703  0.94586863     0.14100
F1359       F  0.67388074  0.24863214  0.95569451    -0.13200
F1360       F  0.60985600  0.27480092  0.88325610    -0.13700
F1361       F  0.66966334  0.24831298  0.86737381    -0.16000
F1362       F  0.61411380  0.27452984  0.97158130    -0.14500
F1363       F  0.66594745  0.28691584  0.01008306    -0.14500
F1364       F  0.62594615  0.23682248  0.10527231    -0.16000
C1365       C  0.62705464  0.23202901  0.44413991     0.14100
C1366       C  0.64362698  0.23714356  0.46396012     0.01100
C1367       C  0.65784760  0.24408879  0.43797439     0.16000
C1368       C  0.65505719  0.24717327  0.39343682     0.25500
C1369       C  0.63792019  0.24354876  0.37436076    -0.40900
C1370       C  0.62410815  0.23546247  0.39978657     0.32500
C1371       C  0.64510268  0.23779424  0.51208356     0.01100
F1372       F  0.67396906  0.24920523  0.45627838    -0.13200
F1373       F  0.60761560  0.23129828  0.38197987    -0.13700
C1374       C  0.65952422  0.22909328  0.53423517     0.16000
C1375       C  0.66124631  0.23087781  0.57956586     0.25500
C1376       C  0.64855741  0.24143294  0.60339445    -0.40800
C1377       C  0.63409493  0.25000201  0.58102804     0.32400
C1378       C  0.63244674  0.24825845  0.53586659     0.14100
F1379       F  0.67180159  0.21871664  0.51205313    -0.13200
F1380       F  0.62113391  0.25959621  0.60297131    -0.13700
F1381       F  0.67536148  0.22233178  0.60004425    -0.16000
F1382       F  0.61856896  0.25708475  0.51515769    -0.14500
F1383       F  0.61344922  0.22442149  0.46826033    -0.14500
F1384       F  0.66864965  0.25508243  0.36982213    -0.16000
C1385       C  0.54537091  0.18048056  0.15198959     0.14100
C1386       C  0.56398917  0.18383577  0.14508381     0.01100
C1387       C  0.57398561  0.17245276  0.11690929     0.16000
C1388       C  0.56534098  0.15796887  0.09530784     0.25500
C1389       C  0.54657523  0.15470755  0.10176011    -0.40900
C1390       C  0.53671069  0.16604588  0.13054023     0.32500
C1391       C  0.57311954  0.19882017  0.16865411     0.01100
F1392       F  0.59200921  0.17567663  0.10958821    -0.13200
F1393       F  0.51863392  0.16314633  0.13792419    -0.13700
C1394       C  0.58462894  0.19472096  0.20391158     0.16000
C1395       C  0.59372418  0.20868965  0.22595540     0.25500
C1396       C  0.59155499  0.22705270  0.21287323    -0.40800
C1397       C  0.57946880  0.23122155  0.17841649     0.32400
C1398       C  0.57030798  0.21714387  0.15641111     0.14100
F1399       F  0.58711368  0.17711248  0.21682021    -0.13200
F1400       F  0.57725261  0.24874963  0.16459761    -0.13700
F1401       F  0.60479147  0.20422240  0.26001575    -0.16000
F1402       F  0.55917933  0.22130194  0.12225581    -0.14500
F1403       F  0.53562354  0.19115770  0.17977401    -0.14500
F1404       F  0.57508480  0.14775050  0.06653858    -0.16000
C1405       C  0.82951121  0.23605554  0.58749537     0.14100
C1406       C  0.84422451  0.23667881  0.55809583     0.01100
C1407       C  0.86220375  0.23721742  0.57394490     0.16000
C1408       C  0.86541353  0.23872446  0.61866233     0.25500
C1409       C  0.85067387  0.23955867  0.64795854    -0.40900
C1410       C  0.83272668  0.23745575  0.63239545     0.32500
C1411       C  0.84085215  0.23840501  0.51096573     0.01100
F1412       F  0.87657952  0.23711025  0.54589139    -0.13200
F1413       F  0.81829439  0.23847496  0.66014775    -0.13700
C1414       C  0.84519707  0.25477850  0.48929224     0.16000
C1415       C  0.84244682  0.25644827  0.44429306     0.25500
C1416       C  0.83533115  0.24168148  0.42027485    -0.40800
C1417       C  0.83068535  0.22534852  0.44266113     0.32400
C1418       C  0.83344252  0.22379385  0.48757109     0.14100
F1419       F  0.85216750  0.26914768  0.51187174    -0.13200
F1420       F  0.82401876  0.21054529  0.42114918    -0.13700
F1421       F  0.84699347  0.27240860  0.42433691    -0.16000
F1422       F  0.82942180  0.20779480  0.50805710    -0.14500
F1423       F  0.81204007  0.23545226  0.57249716    -0.14500
F1424       F  0.88287794  0.24025679  0.63332295    -0.16000
C1425       C  0.82193859  0.26686422  0.08630948     0.14100
C1426       C  0.83404123  0.25845767  0.05688291     0.01100
C1427       C  0.84989342  0.24996427  0.07291014     0.16000
C1428       C  0.85363004  0.24984494  0.11758283     0.25500
C1429       C  0.84163683  0.25838591  0.14732342    -0.40900
C1430       C  0.82578367  0.26699829  0.13112447     0.32500
C1431       C  0.83130382  0.26014268  0.00919551     0.01100
F1432       F  0.86210295  0.24222510  0.04509065    -0.13200
F1433       F  0.81428219  0.27602048  0.15836314    -0.13700
C1434       C  0.83099964  0.27758559  0.99004698     0.16000
C1435       C  0.83122400  0.27949062  0.94475145     0.25500
C1436       C  0.83186136  0.26395794  0.91763279    -0.40800
C1437       C  0.83119383  0.24645710  0.93670754     0.32400
C1438       C  0.83095547  0.24456747  0.98225308     0.14100
F1439       F  0.83171852  0.29283478  0.01526598    -0.13200
F1440       F  0.83206710  0.23122160  0.91149257    -0.13700
F1441       F  0.83147974  0.29661457  0.92744430    -0.16000
F1442       F  0.83110204  0.22754870  0.00010721    -0.14500
F1443       F  0.80645313  0.27506194  0.07151009    -0.14500
F1444       F  0.86897108  0.24114809  0.13159770    -0.16000
C1445       C  0.88950908  0.31870480  0.32660326     0.14100
C1446       C  0.90653130  0.31510492  0.34592308     0.01100
C1447       C  0.91367117  0.29730181  0.34415643     0.16000
C1448       C  0.90353794  0.28303043  0.32553632     0.25500
C1449       C  0.88590813  0.28626601  0.30840933    -0.40900
C1450       C  0.87928742  0.30447953  0.30793175     0.32500
C1451       C  0.91578602  0.32916548  0.37291502     0.01100
F1452       F  0.93028282  0.29363037  0.36196135    -0.13200
F1453       F  0.86268377  0.30855920  0.29053096    -0.13700
C1454       C  0.91365915  0.32864470  0.41845680     0.16000
C1455       C  0.92309947  0.34093378  0.44519924     0.25500
C1456       C  0.93481937  0.35417215  0.42689193    -0.40800
C1457       C  0.93662178  0.35496481  0.38100327     0.32400
C1458       C  0.92718216  0.34252348  0.35423317     0.14100
F1459       F  0.90246414  0.31603670  0.43706431    -0.13200
F1460       F  0.94813912  0.36720857  0.36217662    -0.13700
F1461       F  0.92066748  0.33991952  0.48912597    -0.16000
F1462       F  0.92953198  0.34320056  0.31025353    -0.14500
F1463       F  0.88243305  0.33587942  0.32748837    -0.14500
F1464       F  0.91080998  0.26594768  0.32570559    -0.16000
C1465       C  0.76344101  0.25397375  0.22310513     0.14100
C1466       C  0.74998211  0.25002554  0.25458474     0.01100
C1467       C  0.75418430  0.23739191  0.28800554     0.16000
C1468       C  0.77184028  0.22986379  0.29140434     0.25500
C1469       C  0.78543631  0.23443048  0.26080067    -0.40900
C1470       C  0.78083090  0.24606509  0.22594666     0.32500
C1471       C  0.73152156  0.25870662  0.25150449     0.01100
F1472       F  0.74131987  0.23265053  0.31790694    -0.13200
F1473       F  0.79372716  0.25089989  0.19637076    -0.13700
C1474       C  0.72154080  0.25736105  0.21242411     0.16000
C1475       C  0.70388058  0.26443937  0.20950680     0.25500
C1476       C  0.69541942  0.27262522  0.24591391    -0.40800
C1477       C  0.70560545  0.27494199  0.28441803     0.32400
C1478       C  0.72360570  0.26811097  0.28713490     0.14100
F1479       F  0.72842919  0.24811532  0.17768505    -0.13200
F1480       F  0.69775418  0.28260920  0.32014066    -0.13700
F1481       F  0.69444937  0.26213439  0.17161291    -0.16000
F1482       F  0.73313282  0.27029760  0.32484648    -0.14500
F1483       F  0.76011712  0.26636765  0.19093576    -0.14500
F1484       F  0.77601016  0.21907407  0.32617199    -0.16000
C1485       C  0.61008844  0.35539466  0.33980909     0.14100
C1486       C  0.60180565  0.35173510  0.38035105     0.01100
C1487       C  0.60488703  0.33463716  0.40016728     0.16000
C1488       C  0.61459372  0.32091758  0.37819498     0.25500
C1489       C  0.62142802  0.32391034  0.33562036    -0.40900
C1490       C  0.61985991  0.34167635  0.31769026     0.32500
C1491       C  0.58808547  0.36455167  0.39948997     0.01100
F1492       F  0.59720150  0.33066137  0.43943733    -0.13200
F1493       F  0.62648935  0.34545256  0.27724943    -0.13700
C1494       C  0.57185234  0.36845969  0.37652360     0.16000
C1495       C  0.55722975  0.37736683  0.39718053     0.25500
C1496       C  0.55854327  0.38273202  0.44127946    -0.40800
C1497       C  0.57536863  0.38003206  0.46318021     0.32400
C1498       C  0.58990968  0.37097152  0.44254313     0.14100
F1499       F  0.56959725  0.36237497  0.33498113    -0.13200
F1500       F  0.57731393  0.38472239  0.50585477    -0.13700
F1501       F  0.54141739  0.37984149  0.37463507    -0.16000
F1502       F  0.60549451  0.36766734  0.46540358    -0.14500
F1503       F  0.60794552  0.37202631  0.32064262    -0.14500
F1504       F  0.61625023  0.30428678  0.39765349    -0.16000
C1505       C  0.55405446  0.33868891  0.66511400     0.14100
C1506       C  0.56463787  0.32550847  0.64335522     0.01100
C1507       C  0.56588859  0.32601808  0.59759797     0.16000
C1508       C  0.55635000  0.33921767  0.57377240     0.25500
C1509       C  0.54547686  0.35227210  0.59536275    -0.40900
C1510       C  0.54452511  0.35199235  0.64129284     0.32500
C1511       C  0.57437158  0.31108567  0.66797137     0.01100
F1512       F  0.57654873  0.31380285  0.57599759    -0.13200
F1513       F  0.53381168  0.36410787  0.66301701    -0.13700
C1514       C  0.57045255  0.29257868  0.66007508     0.16000
C1515       C  0.58073167  0.27881880  0.68024908     0.25500
C1516       C  0.59520993  0.28336613  0.70854781    -0.40800
C1517       C  0.59854755  0.30197633  0.71787529     0.32400
C1518       C  0.58822387  0.31569189  0.69768253     0.14100
F1519       F  0.55680296  0.28785918  0.63218418    -0.13200
F1520       F  0.61192169  0.30696993  0.74626596    -0.13700
F1521       F  0.57695676  0.26109818  0.67064984    -0.16000
F1522       F  0.59223437  0.33350202  0.70582238    -0.14500
F1523       F  0.55255091  0.33834319  0.70932565    -0.14500
F1524       F  0.55797040  0.33936768  0.52954602    -0.16000
C1525       C  0.42033794  0.70997193  0.33452836     0.14100
C1526       C  0.41229236  0.69479412  0.35545594     0.01100
C1527       C  0.39316538  0.69387326  0.35865149     0.16000
C1528       C  0.38225777  0.70765123  0.34090731     0.25500
C1529       C  0.39021374  0.72288505  0.32011552    -0.40900
C1530       C  0.40937553  0.72401799  0.31737421     0.32500
C1531       C  0.42356372  0.68054886  0.37718584     0.01100
F1532       F  0.38499890  0.67987653  0.38038621    -0.13200
F1533       F  0.41745951  0.73843823  0.29713704    -0.13700
C1534       C  0.43609809  0.68556172  0.40978044     0.16000
C1535       C  0.44465831  0.67221612  0.43525230     0.25500
C1536       C  0.44064017  0.65352956  0.42917460    -0.40800
C1537       C  0.42871304  0.64843656  0.39527722     0.32400
C1538       C  0.42039422  0.66184055  0.36918121     0.14100
F1539       F  0.43924301  0.70345885  0.41886391    -0.13200
F1540       F  0.42513093  0.63052449  0.38736360    -0.13700
F1541       F  0.45612908  0.67772341  0.46758028    -0.16000
F1542       F  0.40895308  0.65658548  0.33656578    -0.14500
F1543       F  0.43878344  0.71109437  0.33031819    -0.14500
F1544       F  0.36382650  0.70630712  0.34524330    -0.16000
C1545       C  0.48977578  0.48088294  0.56943730     0.14100
C1546       C  0.49253334  0.49230776  0.53319054     0.01100
C1547       C  0.50196368  0.48535077  0.49657046     0.16000
C1548       C  0.50772503  0.46695475  0.49555540     0.25500
C1549       C  0.50406397  0.45536047  0.53112427    -0.40900
C1550       C  0.49553822  0.46270981  0.56851629     0.32500
C1551       C  0.48538165  0.51136767  0.53410593     0.01100
F1552       F  0.50530373  0.49629667  0.46160807    -0.13200
F1553       F  0.49201410  0.45194578  0.60378518    -0.13700
C1554       C  0.49121121  0.52350202  0.56674273     0.16000
C1555       C  0.48465755  0.54146409  0.56787330     0.25500
C1556       C  0.47227794  0.54792318  0.53585217    -0.40800
C1557       C  0.46564276  0.53540234  0.50463523     0.32400
C1558       C  0.47214425  0.51730494  0.50383058     0.14100
F1559       F  0.50382296  0.51813363  0.59677325    -0.13200
F1560       F  0.45359173  0.54085701  0.47346209    -0.13700
F1561       F  0.49102061  0.55273011  0.59961856    -0.16000
F1562       F  0.46559192  0.50557710  0.47326545    -0.14500
F1563       F  0.48064253  0.48708130  0.60509608    -0.14500
F1564       F  0.51582119  0.46024788  0.45906311    -0.16000
C1565       C  0.88969357  0.13314232  0.09302302     0.14100
C1566       C  0.89354891  0.14269546  0.13185318     0.01100
C1567       C  0.91088661  0.14060612  0.15126051     0.16000
C1568       C  0.92438646  0.13000951  0.13116823     0.25500
C1569       C  0.92088279  0.12119512  0.09132710    -0.40900
C1570       C  0.90326813  0.12241688  0.07296956     0.32500
C1571       C  0.88027221  0.15582782  0.15130477     0.01100
F1572       F  0.91524293  0.15004456  0.18799978    -0.13200
F1573       F  0.89974167  0.11460035  0.03364135    -0.13700
C1574       C  0.87492810  0.15377086  0.19509487     0.16000
C1575       C  0.86579621  0.16788498  0.21687034     0.25500
C1576       C  0.86182592  0.18450066  0.19533042    -0.40800
C1577       C  0.86591134  0.18601124  0.15045814     0.32400
C1578       C  0.87500151  0.17176847  0.12859104     0.14100
F1579       F  0.87956584  0.13843028  0.21761896    -0.13200
F1580       F  0.86177996  0.20156053  0.12820259    -0.13700
F1581       F  0.86235288  0.16583705  0.26020089    -0.16000
F1582       F  0.87981509  0.17412602  0.08610737    -0.14500
F1583       F  0.87308242  0.13483578  0.07358561    -0.14500
F1584       F  0.94144029  0.12958236  0.14876221    -0.16000
C1585       C  0.93024520  0.17963432  0.90681173     0.14100
C1586       C  0.91659882  0.17353530  0.87809124     0.01100
C1587       C  0.91329161  0.15467188  0.87407777     0.16000
C1588       C  0.92340095  0.14208967  0.89890082     0.25500
C1589       C  0.93701707  0.14822948  0.92793950    -0.40900
C1590       C  0.94038838  0.16714713  0.93138113     0.32500
C1591       C  0.90535782  0.18709711  0.85421996     0.01100
F1592       F  0.90031723  0.14847008  0.84602517    -0.13200
F1593       F  0.95297270  0.17369359  0.96002111    -0.13700
C1594       C  0.91362594  0.19967535  0.82568526     0.16000
C1595       C  0.90339863  0.21386304  0.80704703     0.25500
C1596       C  0.88466016  0.21579342  0.81684889    -0.40800
C1597       C  0.87630605  0.20271066  0.84435100     0.32400
C1598       C  0.88657754  0.18853102  0.86280449     0.14100
F1599       F  0.93174131  0.19838140  0.81649698    -0.13200
F1600       F  0.85820441  0.20367784  0.85392137    -0.13700
F1601       F  0.91203752  0.22601091  0.78056172    -0.16000
F1602       F  0.87832260  0.17663631  0.89063260    -0.14500
F1603       F  0.93327646  0.19781033  0.91233363    -0.14500
F1604       F  0.91999833  0.12394182  0.89422745    -0.16000
C1605       C  0.07055228  0.78600333  0.16008107     0.14100
C1606       C  0.07308017  0.80460888  0.16975503     0.01100
C1607       C  0.08560669  0.80958426  0.20241294     0.16000
C1608       C  0.09563962  0.79619825  0.22475740     0.25500
C1609       C  0.09329859  0.77751593  0.21491606    -0.40900
C1610       C  0.08056467  0.77256030  0.18242891     0.32500
C1611       C  0.06303744  0.81889791  0.14504793     0.01100
F1612       F  0.08811078  0.82747393  0.21264452    -0.13200
F1613       F  0.07846393  0.75478110  0.17069880    -0.13700
C1614       C  0.04394217  0.82037587  0.14840418     0.16000
C1615       C  0.03449724  0.83391028  0.12502928     0.25500
C1616       C  0.04402080  0.84623047  0.09788442    -0.40800
C1617       C  0.06318822  0.84474456  0.09477856     0.32400
C1618       C  0.07257748  0.83118588  0.11809317     0.14100
F1619       F  0.03448234  0.80885856  0.17488148    -0.13200
F1620       F  0.07281898  0.85600101  0.06798516    -0.13700
F1621       F  0.01607144  0.83516422  0.12957244    -0.16000
F1622       F  0.09099023  0.82975264  0.11354800    -0.14500
F1623       F  0.05888400  0.78091247  0.12778178    -0.14500
F1624       F  0.10765581  0.80155070  0.25606842    -0.16000
C1625       C  0.99399090  0.98102120  0.98791281     0.14100
C1626       C  0.99661532  0.99000993  0.02800224     0.01100
C1627       C  0.00605952  0.98089218  0.06165259     0.16000
C1628       C  0.01204750  0.96283770  0.05597758     0.25500
C1629       C  0.00862645  0.95347461  0.01653091    -0.40900
C1630       C  0.99979379  0.96289000  0.98231499     0.32500
C1631       C  0.99008712  0.00912290  0.03389085     0.01100
F1632       F  0.00885069  0.98923154  0.10071099    -0.13200
F1633       F  0.99655107  0.95444583  0.94360890    -0.13700
C1634       C  0.97142858  0.01365343  0.02970794     0.16000
C1635       C  0.96569091  0.03204170  0.03038524     0.25500
C1636       C  0.97853696  0.04619216  0.03568666    -0.40800
C1637       C  0.99710676  0.04134393  0.04263050     0.32400
C1638       C  0.00274131  0.02311030  0.04150687     0.14100
F1639       F  0.95880488  0.00022832  0.02455936    -0.13200
F1640       F  0.01024419  0.05429301  0.04781726    -0.13700
F1641       F  0.94767250  0.03597050  0.02544060    -0.16000
F1642       F  0.02083556  0.01921280  0.04545150    -0.14500
F1643       F  0.98581735  0.98987486  0.95408680    -0.14500
F1644       F  0.02006026  0.95412753  0.09026557    -0.16000
C1645       C  0.33536479  0.73306809  0.08351929     0.14100
C1646       C  0.34529524  0.74560794  0.05775250     0.01100
C1647       C  0.35724897  0.75793288  0.07821291     0.16000
C1648       C  0.36004793  0.75709518  0.12295082     0.25500
C1649       C  0.34969352  0.74509441  0.14895190    -0.40900
C1650       C  0.33716498  0.73319555  0.12903146     0.32500
C1651       C  0.34391986  0.74558510  0.00958452     0.01100
F1652       F  0.36608990  0.77107428  0.05496503    -0.13200
F1653       F  0.32710785  0.72137833  0.15341994    -0.13700
C1654       C  0.32678470  0.74548610  0.98856250     0.16000
C1655       C  0.32581244  0.74521681  0.94300765     0.25500
C1656       C  0.34188325  0.74612269  0.91813600    -0.40800
C1657       C  0.35891348  0.74685417  0.93890081     0.32400
C1658       C  0.35997479  0.74600180  0.98417961     0.14100
F1659       F  0.31102730  0.74591967  0.01196286    -0.13200
F1660       F  0.37459241  0.74738209  0.91518504    -0.13700
F1661       F  0.30922326  0.74432300  0.92314502    -0.16000
F1662       F  0.37675898  0.74505192  0.00309426    -0.14500
F1663       F  0.32424654  0.72046901  0.06471986    -0.14500
F1664       F  0.37257980  0.76853248  0.14086782    -0.16000
C1665       C  0.34820739  0.74724317  0.48607147     0.14100
C1666       C  0.33949223  0.76099892  0.51015518     0.01100
C1667       C  0.32763306  0.77323831  0.48912247     0.16000
C1668       C  0.32504117  0.77217005  0.44403794     0.25500
C1669       C  0.33440455  0.75884001  0.41930018    -0.40900
C1670       C  0.34575309  0.74616526  0.44105810     0.32500
C1671       C  0.34271644  0.76226299  0.55739696     0.01100
F1672       F  0.31902313  0.78658422  0.51208109    -0.13200
F1673       F  0.35507713  0.73310635  0.41880660    -0.13700
C1674       C  0.36055985  0.76456524  0.57343675     0.16000
C1675       C  0.36399996  0.76329121  0.61815620     0.25500
C1676       C  0.34955263  0.75993408  0.64738055    -0.40800
C1677       C  0.33154943  0.75860052  0.63126777     0.32400
C1678       C  0.32819118  0.75971085  0.58656893     0.14100
F1679       F  0.37469489  0.76756653  0.54557440    -0.13200
F1680       F  0.31732071  0.75488755  0.65834580    -0.13700
F1681       F  0.38147268  0.76494296  0.63269158    -0.16000
F1682       F  0.31090193  0.75714365  0.57156464    -0.14500
F1683       F  0.35924137  0.73488139  0.50625274    -0.14500
F1684       F  0.31373038  0.78450835  0.42467871    -0.16000
C1685       C  0.40853044  0.80772783  0.80865315     0.14100
C1686       C  0.41757217  0.80448685  0.84828317     0.01100
C1687       C  0.41792774  0.78668812  0.86582145     0.16000
C1688       C  0.40838192  0.77250195  0.84508191     0.25500
C1689       C  0.39834740  0.77607090  0.80674839    -0.40900
C1690       C  0.39903705  0.79365879  0.78800478     0.32500
C1691       C  0.42572443  0.81999532  0.87214059     0.01100
F1692       F  0.42661340  0.78333013  0.90425415    -0.13200
F1693       F  0.38997559  0.79737591  0.75024818    -0.13700
C1694       C  0.41441927  0.83364880  0.88979638     0.16000
C1695       C  0.42201193  0.84850631  0.91208828     0.25500
C1696       C  0.44110714  0.84997313  0.91695214    -0.40800
C1697       C  0.45238749  0.83636472  0.89834656     0.32400
C1698       C  0.44472554  0.82149128  0.87633773     0.14100
F1699       F  0.39595366  0.83230730  0.88636372    -0.13200
F1700       F  0.47088381  0.83737365  0.90152601    -0.13700
F1701       F  0.41061698  0.86099681  0.93038138    -0.16000
F1702       F  0.45586165  0.80858868  0.85878837    -0.14500
F1703       F  0.40846490  0.82471882  0.79063741    -0.14500
F1704       F  0.40784591  0.75571868  0.86411718    -0.16000
C1705       C  0.36897564  0.66816342  0.62712049     0.14100
C1706       C  0.37372244  0.65214575  0.64995617     0.01100
C1707       C  0.36783549  0.65001136  0.69330920     0.16000
C1708       C  0.35911993  0.66443533  0.71503007     0.25500
C1709       C  0.35647096  0.68140166  0.69386010    -0.40900
C1710       C  0.36048285  0.68272168  0.64892068     0.32500
C1711       C  0.38830273  0.64011324  0.63240301     0.01100
F1712       F  0.37206407  0.63455067  0.71581502    -0.13200
F1713       F  0.35748412  0.69860003  0.62693163    -0.13700
C1714       C  0.40604144  0.64184920  0.64954666     0.16000
C1715       C  0.42085808  0.63348750  0.62891801     0.25500
C1716       C  0.41824563  0.62298320  0.59104270    -0.40800
C1717       C  0.40033062  0.62005765  0.57564999     0.32400
C1718       C  0.38543156  0.62875142  0.59599696     0.14100
F1719       F  0.40920810  0.65289400  0.68437850    -0.13200
F1720       F  0.39745117  0.61016446  0.53878760    -0.13700
F1721       F  0.43799167  0.63659841  0.64436468    -0.16000
F1722       F  0.36839174  0.62681643  0.57900522    -0.14500
F1723       F  0.37428866  0.67044591  0.58495452    -0.14500
F1724       F  0.35527061  0.66243255  0.75817432    -0.16000
C1725       C  0.13288655  0.75444225  0.03789975     0.14100
C1726       C  0.14318116  0.74186397  0.01356616     0.01100
C1727       C  0.15484017  0.72955876  0.03481221     0.16000
C1728       C  0.15597621  0.72952712  0.08008971     0.25500
C1729       C  0.14516683  0.74166631  0.10495674    -0.40900
C1730       C  0.13383113  0.75434959  0.08339198     0.32500
C1731       C  0.14190489  0.74169662  0.96585703     0.01100
F1732       F  0.16476591  0.71721203  0.01168028    -0.13200
F1733       F  0.12321261  0.76622154  0.10615130    -0.13700
C1734       C  0.15745847  0.74530656  0.94061313     0.16000
C1735       C  0.15604854  0.74644696  0.89536719     0.25500
C1736       C  0.13897115  0.74422466  0.87480883    -0.40800
C1737       C  0.12357107  0.73964704  0.90023270     0.32400
C1738       C  0.12507970  0.73834566  0.94548429     0.14100
F1739       F  0.17384780  0.74858738  0.95998206    -0.13200
F1740       F  0.10697410  0.73677567  0.88152156    -0.13700
F1741       F  0.17122165  0.75073644  0.87209025    -0.16000
F1742       F  0.11007903  0.73406299  0.96955779    -0.14500
F1743       F  0.12187097  0.76675113  0.01750313    -0.14500
F1744       F  0.16749296  0.71736080  0.09941496    -0.16000
C1745       C  0.13343917  0.76339990  0.45158899     0.14100
C1746       C  0.15054998  0.75756160  0.46688821     0.01100
C1747       C  0.16366149  0.75102154  0.43757546     0.16000
C1748       C  0.15957809  0.75001577  0.39308013     0.25500
C1749       C  0.14223732  0.75544211  0.37757955    -0.40900
C1750       C  0.12924920  0.76228731  0.40720609     0.32500
C1751       C  0.15419575  0.75758846  0.51391172     0.01100
F1752       F  0.18014817  0.74506887  0.45231010    -0.13200
F1753       F  0.11247935  0.76776924  0.39329008    -0.13700
C1754       C  0.14804157  0.74300265  0.53965325     0.16000
C1755       C  0.14866980  0.74420112  0.58505918     0.25500
C1756       C  0.15532130  0.76019556  0.60530943    -0.40800
C1757       C  0.16283388  0.77419887  0.57902000     0.32400
C1758       C  0.16215579  0.77289317  0.53357503     0.14100
F1759       F  0.14062082  0.72795221  0.52071022    -0.13200
F1760       F  0.17015873  0.78950513  0.59699613    -0.13700
F1761       F  0.14194684  0.73003945  0.60891431    -0.16000
F1762       F  0.16844419  0.78694466  0.50870906    -0.14500
F1763       F  0.12068745  0.76982367  0.47992739    -0.14500
F1764       F  0.17220168  0.74277651  0.36558900    -0.16000
C1765       C  0.09666840  0.69194175  0.67694650     0.14100
C1766       C  0.07777936  0.69420227  0.67130700     0.01100
C1767       C  0.06939667  0.71046082  0.68524269     0.16000
C1768       C  0.07984651  0.72448890  0.70366498     0.25500
C1769       C  0.09890101  0.72246271  0.70845811    -0.40900
C1770       C  0.10716470  0.70592365  0.69522199     0.32500
C1771       C  0.06721918  0.68031241  0.64710192     0.01100
F1772       F  0.05107650  0.71278911  0.68060676    -0.13200
F1773       F  0.12553314  0.70348047  0.69826909    -0.13700
C1774       C  0.06556170  0.66232807  0.66301417     0.16000
C1775       C  0.05660008  0.64900670  0.63808371     0.25500
C1776       C  0.04905325  0.65361685  0.59728540    -0.40800
C1777       C  0.05054764  0.67164411  0.58174054     0.32400
C1778       C  0.05964404  0.68485701  0.60634277     0.14100
F1779       F  0.07249047  0.65776285  0.70275578    -0.13200
F1780       F  0.04373528  0.67629428  0.54193395    -0.13700
F1781       F  0.05489613  0.63177081  0.65414905    -0.16000
F1782       F  0.06159595  0.70198982  0.58975886    -0.14500
F1783       F  0.10508869  0.67647892  0.66286238    -0.14500
F1784       F  0.07128778  0.74002398  0.71674093    -0.16000
C1785       C  0.07035997  0.86446798  0.87264026     0.14100
C1786       C  0.08784891  0.86241746  0.89122629     0.01100
C1787       C  0.09162868  0.87072922  0.93162587     0.16000
C1788       C  0.07774260  0.87973277  0.95463258     0.25500
C1789       C  0.05988089  0.88025612  0.93781715    -0.40900
C1790       C  0.05642626  0.87317721  0.89599888     0.32500
C1791       C  0.10106493  0.84951137  0.87129164     0.01100
F1792       F  0.10845321  0.86909627  0.94999437    -0.13200
F1793       F  0.03921990  0.87351271  0.87925331    -0.13700
C1794       C  0.10775035  0.85247543  0.82892667     0.16000
C1795       C  0.11765155  0.83879207  0.80739765     0.25500
C1796       C  0.12087529  0.82172201  0.82775009    -0.40800
C1797       C  0.11503935  0.81924701  0.87127558     0.32400
C1798       C  0.10527005  0.83302291  0.89279131     0.14100
F1799       F  0.10392297  0.86833200  0.80761394    -0.13200
F1800       F  0.11794222  0.80313753  0.89235959    -0.13700
F1801       F  0.12275925  0.84180084  0.76535085    -0.16000
F1802       F  0.09874615  0.82972834  0.93359878    -0.14500
F1803       F  0.06633665  0.85658345  0.83365328    -0.14500
F1804       F  0.08127087  0.88626161  0.99528045    -0.16000
C1805       C  0.22558160  0.76529193  0.79609666     0.14100
C1806       C  0.23583785  0.76432791  0.75725446     0.01100
C1807       C  0.22794137  0.77064900  0.71813974     0.16000
C1808       C  0.20976261  0.77664656  0.71733071     0.25500
C1809       C  0.19913909  0.77659500  0.75558918    -0.40900
C1810       C  0.20735898  0.77138315  0.79524170     0.32500
C1811       C  0.25475706  0.75681858  0.75735477     0.01100
F1812       F  0.23746466  0.76987962  0.68012234    -0.13200
F1813       F  0.19740249  0.77106911  0.83258737    -0.13700
C1814       C  0.25833441  0.73859381  0.77003036     0.16000
C1815       C  0.27640077  0.73199063  0.77216096     0.25500
C1816       C  0.29110809  0.74360208  0.76209075    -0.40800
C1817       C  0.28734755  0.76151489  0.74727886     0.32400
C1818       C  0.26941705  0.76801324  0.74491025     0.14100
F1819       F  0.24434098  0.72730966  0.78104315    -0.13200
F1820       F  0.30119324  0.77307401  0.73664809    -0.13700
F1821       F  0.27955170  0.71472030  0.78668220    -0.16000
F1822       F  0.26643487  0.78560696  0.73245062    -0.14500
F1823       F  0.23307163  0.75985230  0.83461384    -0.14500
F1824       F  0.20199651  0.78106935  0.67837978    -0.16000
C1825       C  0.58144901  0.32339093  0.10493075     0.14100
C1826       C  0.56346347  0.32489831  0.12017379     0.01100
C1827       C  0.55889947  0.31802307  0.16145031     0.16000
C1828       C  0.57223595  0.31001406  0.18786768     0.25500
C1829       C  0.59050377  0.30867032  0.17329440    -0.40900
C1830       C  0.59487941  0.31522547  0.13107713     0.32500
C1831       C  0.54972474  0.33536884  0.09557906     0.01100
F1832       F  0.54155392  0.31966332  0.17677828    -0.13200
F1833       F  0.61214732  0.31396689  0.11509068    -0.13700
C1834       C  0.53538018  0.32646813  0.07384170     0.16000
C1835       C  0.52086230  0.33661542  0.05635646     0.28700
C1836       C  0.52047481  0.35578901  0.06104859    -0.40800
C1837       C  0.53535302  0.36461824  0.08136921     0.32400
C1838       C  0.54982792  0.35446749  0.09840945     0.14100
F1839       F  0.53520292  0.30794282  0.07081320    -0.13200
F1840       F  0.53583917  0.38311079  0.08532207    -0.13700
F1841       F  0.50684874  0.32762063  0.03675919    -0.16000
F1842       F  0.56359746  0.36323035  0.11956025    -0.14500
F1843       F  0.58601989  0.33006677  0.06496516    -0.14500
F1844       F  0.56717531  0.30379858  0.22790650    -0.16000
C1845       C  0.46293720  0.41571579  0.23743211     0.14100
C1846       C  0.47935741  0.41012492  0.25717790     0.01100
C1847       C  0.49487148  0.40705332  0.23088205     0.16000
C1848       C  0.49352173  0.40801335  0.18533892     0.25500
C1849       C  0.47673097  0.41238617  0.16571117    -0.40900
C1850       C  0.46171203  0.41703128  0.19211761     0.32500
C1851       C  0.47976733  0.40573675  0.30438893     0.01100
F1852       F  0.51107037  0.40216425  0.24925346    -0.13200
F1853       F  0.44544242  0.42173168  0.17379424    -0.13700
C1854       C  0.48560307  0.38835973  0.31821402     0.16000
C1855       C  0.48632585  0.38404126  0.36252781     0.25500
C1856       C  0.48087560  0.39693325  0.39419493    -0.40800
C1857       C  0.47409213  0.41401748  0.38012807     0.32400
C1858       C  0.47372873  0.41843106  0.33565688     0.14100
F1859       F  0.49056745  0.37543500  0.28867827    -0.13200
F1860       F  0.46807965  0.42662318  0.40930860    -0.13700
F1861       F  0.49289107  0.36734462  0.37417908    -0.16000
F1862       F  0.46791222  0.43530330  0.32325636    -0.14500
F1863       F  0.44764364  0.41847392  0.26166844    -0.14500
F1864       F  0.50808898  0.40304271  0.16056089    -0.16000
C1865       C  0.47989930  0.40117345  0.73511117     0.14100
C1866       C  0.49638857  0.40092881  0.75871437     0.01100
C1867       C  0.51303734  0.40272266  0.73676195     0.16000
C1868       C  0.51331051  0.40410633  0.69140979     0.25500
C1869       C  0.49685550  0.40362996  0.66726773    -0.40900
C1870       C  0.48011290  0.40245833  0.68955883     0.32500
C1871       C  0.49630745  0.39689378  0.80566423     0.01100
F1872       F  0.52908000  0.40216199  0.75913036    -0.13200
F1873       F  0.46402522  0.40255289  0.66738128    -0.13700
C1874       C  0.49054909  0.37960661  0.81980468     0.16000
C1875       C  0.48926417  0.37580905  0.86421547     0.25500
C1876       C  0.49379349  0.38926684  0.89514589    -0.40800
C1877       C  0.50081783  0.40615934  0.88097273     0.32400
C1878       C  0.50197696  0.40999770  0.83628241     0.14100
F1879       F  0.48588215  0.36650854  0.79042864    -0.13200
F1880       F  0.50539669  0.41931906  0.91021146    -0.13700
F1881       F  0.48314768  0.35910240  0.87705161    -0.16000
F1882       F  0.50780121  0.42672727  0.82291088    -0.14500
F1883       F  0.46364405  0.39983466  0.75628728    -0.14500
F1884       F  0.52979107  0.40495260  0.67108543    -0.16000
C1885       C  0.42995002  0.31300293  0.11432443     0.14100
C1886       C  0.41907274  0.31729135  0.15065363     0.01100
C1887       C  0.41742803  0.33567159  0.16374993     0.16000
C1888       C  0.42620992  0.34957330  0.14030304     0.25500
C1889       C  0.43706230  0.34527548  0.10391030    -0.40900
C1890       C  0.43896343  0.32683849  0.09133362     0.32500
C1891       C  0.40838534  0.30279199  0.17282489     0.01100
F1892       F  0.40724879  0.34014234  0.19924599    -0.13200
F1893       F  0.44885913  0.32226138  0.05543970    -0.13700
C1894       C  0.41696090  0.28722267  0.19066869     0.16000
C1895       C  0.40654083  0.27341923  0.21053252     0.25500
C1896       C  0.38739823  0.27508124  0.21308589    -0.40800
C1897       C  0.37893214  0.29072039  0.19505050     0.32400
C1898       C  0.38929802  0.30431257  0.17497248     0.14100
F1899       F  0.43543990  0.28553145  0.18942005    -0.13200
F1900       F  0.36047069  0.29275251  0.19583076    -0.13700
F1901       F  0.41520083  0.25869691  0.22805477    -0.16000
F1902       F  0.38058287  0.31881069  0.15650358    -0.14500
F1903       F  0.43119216  0.29548893  0.09990439    -0.14500
F1904       F  0.42429190  0.36719151  0.15347120    -0.16000
C1905       C  0.42007875  0.67993626  0.86260024     0.14100
C1906       C  0.41686386  0.67744655  0.90736355     0.01100
C1907       C  0.40008549  0.68314301  0.92511595     0.16000
C1908       C  0.38685530  0.69157668  0.89863514     0.25500
C1909       C  0.39012428  0.69436234  0.85365075    -0.40900
C1910       C  0.40689336  0.68819923  0.83597870     0.32500
C1911       C  0.43071134  0.66803598  0.93482855     0.01100
F1912       F  0.39663036  0.68075758  0.96834134    -0.13200
F1913       F  0.41062583  0.69000861  0.79272181    -0.13700
C1914       C  0.44825789  0.67550667  0.94076032     0.16000
C1915       C  0.46167069  0.66588525  0.96430377     0.25500
C1916       C  0.45776228  0.64853739  0.98225171    -0.40800
C1917       C  0.43996179  0.64132146  0.97668016     0.32400
C1918       C  0.42667272  0.65096507  0.95327104     0.14100
F1919       F  0.45242291  0.69209892  0.92343514    -0.13200
F1920       F  0.43538351  0.62462803  0.99283404    -0.13700
F1921       F  0.47853259  0.67341940  0.96867551    -0.16000
F1922       F  0.40998548  0.64324616  0.94707856    -0.14500
F1923       F  0.43592258  0.67397770  0.84438811    -0.14500
F1924       F  0.37100979  0.69724108  0.91732658    -0.16000
C1925       C  0.50574012  0.59511274  0.70757890     0.14100
C1926       C  0.50144571  0.60940655  0.73651814     0.01100
C1927       C  0.49668467  0.62662659  0.71954850     0.16000
C1928       C  0.49469861  0.62910099  0.67455204     0.25500
C1929       C  0.49774085  0.61446228  0.64569532    -0.40900
C1930       C  0.50408385  0.59769457  0.66239125     0.32500
C1931       C  0.50086086  0.60620107  0.78428069     0.01100
F1932       F  0.49346886  0.64092513  0.74674428    -0.13200
F1933       F  0.50734693  0.58341258  0.63526049    -0.13700
C1934       C  0.51646935  0.60028486  0.80683872     0.16000
C1935       C  0.51595143  0.59779441  0.85211807     0.25500
C1936       C  0.49973275  0.60124338  0.87593042    -0.40800
C1937       C  0.48399768  0.60682678  0.85290065     0.32400
C1938       C  0.48457500  0.60923031  0.80756246     0.14100
F1939       F  0.53241416  0.59744501  0.78516296    -0.13200
F1940       F  0.46800758  0.60998921  0.87407909    -0.13700
F1941       F  0.53157190  0.59247886  0.87256341    -0.16000
F1942       F  0.46912991  0.61442821  0.78620942    -0.14500
F1943       F  0.51041103  0.57833995  0.72312734    -0.14500
F1944       F  0.48933416  0.64570275  0.65918590    -0.16000
C1945       C  0.49644666  0.59455136  0.31251267     0.14100
C1946       C  0.48172390  0.58880964  0.28632877     0.01100
C1947       C  0.46634089  0.58088403  0.30600138     0.16000
C1948       C  0.46513179  0.57981436  0.35144807     0.25500
C1949       C  0.47936788  0.58650854  0.37784378    -0.40900
C1950       C  0.49535023  0.59323830  0.35811036     0.32500
C1951       C  0.48144743  0.59280533  0.23906269     0.01100
F1952       F  0.45190422  0.57548862  0.28126255    -0.13200
F1953       F  0.50911498  0.60011547  0.38292622    -0.13700
C1954       C  0.48221253  0.57862813  0.20832884     0.16000
C1955       C  0.48163131  0.58255434  0.16353115     0.25500
C1956       C  0.48006453  0.60079594  0.14880594    -0.40800
C1957       C  0.47867397  0.61490110  0.18012264     0.32400
C1958       C  0.47947765  0.61091571  0.22470698     0.14100
F1959       F  0.48398741  0.56101378  0.22180394    -0.13200
F1960       F  0.47676526  0.63266080  0.16780143    -0.13700
F1961       F  0.48330438  0.56854329  0.13476506    -0.16000
F1962       F  0.47821301  0.62478213  0.25403499    -0.14500
F1963       F  0.51141817  0.60231983  0.29397075    -0.14500
F1964       F  0.44956585  0.57325689  0.36986569    -0.16000
C1965       C  0.55775568  0.68367821  0.96144696     0.14100
C1966       C  0.56092194  0.68254296  0.91633962     0.01100
C1967       C  0.55523407  0.66685020  0.89357340     0.16000
C1968       C  0.54664545  0.65242568  0.91552428     0.25500
C1969       C  0.54339476  0.65348644  0.96075915    -0.40900
C1970       C  0.54910380  0.66930800  0.98350971     0.32500
C1971       C  0.57155126  0.69688587  0.89341550     0.01100
F1972       F  0.55799561  0.66554073  0.84982065    -0.13200
F1973       F  0.54674060  0.67074362  0.02739928    -0.13700
C1974       C  0.58818107  0.69215182  0.87384546     0.16000
C1975       C  0.59825046  0.70509331  0.85069378     0.25500
C1976       C  0.59198380  0.72330648  0.84657146    -0.40800
C1977       C  0.57542299  0.72818787  0.86718548     0.32400
C1978       C  0.56531254  0.71505774  0.89049198     0.14100
F1979       F  0.59484214  0.67487424  0.87764162    -0.13200
F1980       F  0.56898853  0.74559060  0.86490575    -0.13700
F1981       F  0.61424642  0.69960357  0.83243890    -0.16000
F1982       F  0.54930264  0.71999950  0.90956434    -0.14500
F1983       F  0.56358592  0.69844762  0.98441556    -0.14500
F1984       F  0.54123128  0.63759134  0.89225717    -0.16000
C1985       C  0.47206306  0.48361383  0.04511706     0.14100
C1986       C  0.48378955  0.48999680  0.01175905     0.01100
C1987       C  0.48794233  0.47799897  0.97715545     0.16000
C1988       C  0.48111104  0.46010106  0.97658339     0.25500
C1989       C  0.47039693  0.45329414  0.01131587    -0.40900
C1990       C  0.46559158  0.46544561  0.04512380     0.32500
C1991       C  0.49142116  0.50912643  0.01216929     0.01100
F1992       F  0.49937111  0.48328171  0.94454377    -0.13200
F1993       F  0.45550120  0.45949642  0.07953378    -0.13700
C1994       C  0.50012216  0.51655073  0.04950294     0.16000
C1995       C  0.50646657  0.53481869  0.04971914     0.25500
C1996       C  0.50463865  0.54586093  0.01229627    -0.40800
C1997       C  0.49686806  0.53804924  0.97444651     0.32400
C1998       C  0.49005252  0.52018608  0.97461862     0.14100
F1999       F  0.50224295  0.50621826  0.08605192    -0.13200
F2000       F  0.49488836  0.54821659  0.93749867    -0.13700
F2001       F  0.51328717  0.54200400  0.08718705    -0.16000
F2002       F  0.48113198  0.51410785  0.93850852    -0.14500
F2003       F  0.46693796  0.49492388  0.07801771    -0.14500
F2004       F  0.48560559  0.44915761  0.94245303    -0.16000
C2005       C  0.62466640  0.76105942  0.08832481     0.14100
C2006       C  0.64255704  0.76381451  0.07348594     0.01100
C2007       C  0.65666248  0.76666064  0.10378981     0.16000
C2008       C  0.65305090  0.76576548  0.14870385     0.25500
C2009       C  0.63518633  0.76209784  0.16385425    -0.40900
C2010       C  0.62094388  0.76036855  0.13291628     0.32500
C2011       C  0.64625878  0.76318331  0.02619456     0.01100
F2012       F  0.67404818  0.76951078  0.08984308    -0.13200
F2013       F  0.60338695  0.75741697  0.14548942    -0.13700
C2014       C  0.65070621  0.77918345  0.00328770     0.16000
C2015       C  0.65162837  0.77904064  0.95763118     0.25500
C2016       C  0.64815687  0.76279098  0.93421309    -0.40800
C2017       C  0.64456144  0.74656714  0.95772422     0.32400
C2018       C  0.64358439  0.74681348  0.00325199     0.14100
F2019       F  0.65311360  0.79516847  0.02504378    -0.13200
F2020       F  0.64150949  0.73049623  0.93676036    -0.13700
F2021       F  0.65488076  0.79504658  0.93645819    -0.16000
F2022       F  0.63947785  0.73113661  0.02502726    -0.14500
F2023       F  0.61077577  0.75868915  0.05938403    -0.14500
F2024       F  0.66717665  0.76778771  0.17705335    -0.16000
C2025       C  0.64779569  0.72643714  0.50568371     0.14100
C2026       C  0.63839829  0.74014789  0.52834936     0.01100
C2027       C  0.63095100  0.75499074  0.50507839     0.16000
C2028       C  0.63235699  0.75579323  0.45953669     0.25500
C2029       C  0.64144957  0.74181593  0.43647478    -0.40900
C2030       C  0.64943179  0.72727915  0.46035626     0.32500
C2031       C  0.63611380  0.73879906  0.57619542     0.01100
F2032       F  0.62229397  0.76873527  0.52654551    -0.13200
F2033       F  0.65848140  0.71349516  0.44001230    -0.13700
C2034       C  0.65143725  0.73734920  0.60367421     0.16000
C2035       C  0.64929683  0.73712123  0.64899015     0.25500
C2036       C  0.63175558  0.73868047  0.66770198    -0.40800
C2037       C  0.61635135  0.73902590  0.63987850     0.32400
C2038       C  0.61855274  0.73906130  0.59459402     0.14100
F2039       F  0.66857881  0.73703802  0.58668768    -0.13200
F2040       F  0.59911995  0.73992885  0.65624415    -0.13700
F2041       F  0.66452277  0.73628565  0.67435262    -0.16000
F2042       F  0.60349532  0.73960517  0.56860004    -0.14500
F2043       F  0.65489700  0.71183453  0.52735906    -0.14500
F2044       F  0.62456044  0.77011578  0.43819371    -0.16000
C2045       C  0.56213595  0.78463469  0.37732423     0.14100
C2046       C  0.56441259  0.80342578  0.36938008     0.01100
C2047       C  0.57760486  0.80930338  0.33924708     0.16000
C2048       C  0.58867140  0.79662806  0.31797163     0.25500
C2049       C  0.58677709  0.77778669  0.32658480    -0.40900
C2050       C  0.57320651  0.77187631  0.35599218     0.32500
C2051       C  0.55396718  0.81709603  0.39438089     0.01100
F2052       F  0.58032198  0.82742627  0.33186279    -0.13200
F2053       F  0.57122885  0.75385533  0.36572909    -0.13700
C2054       C  0.55590296  0.81798886  0.43994865     0.16000
C2055       C  0.54746018  0.83196022  0.46340766     0.25500
C2056       C  0.53703919  0.84537372  0.44157437    -0.40800
C2057       C  0.53484691  0.84427297  0.39598072     0.32400
C2058       C  0.54320006  0.83017065  0.37260186     0.14100
F2059       F  0.56662313  0.80576890  0.46154079    -0.13200
F2060       F  0.52445303  0.85668371  0.37411706    -0.13700
F2061       F  0.55011433  0.83276352  0.50730928    -0.16000
F2062       F  0.54086762  0.82928310  0.32862587    -0.14500
F2063       F  0.54941675  0.77868818  0.40635173    -0.14500
F2064       F  0.60144256  0.80287195  0.28941621    -0.16000
C2065       C  0.56534750  0.63884682  0.17624681     0.14100
C2066       C  0.58236730  0.64137983  0.15573058     0.01100
C2067       C  0.58580283  0.63230325  0.11622041     0.16000
C2068       C  0.57205324  0.62206021  0.09574076     0.25500
C2069       C  0.55436146  0.62086360  0.11410845    -0.40900
C2070       C  0.55147602  0.62871286  0.15569098     0.32500
C2071       C  0.59570477  0.65499925  0.17293211     0.01100
F2072       F  0.60227767  0.63414270  0.09628722    -0.13200
F2073       F  0.53488589  0.62752051  0.17539102    -0.13700
C2074       C  0.60409379  0.65261535  0.21382761     0.16000
C2075       C  0.61525675  0.66638049  0.23146154     0.25500
C2076       C  0.61803653  0.68304980  0.20878868    -0.40800
C2077       C  0.61026800  0.68495300  0.16680880     0.32400
C2078       C  0.59929096  0.67108021  0.14912909     0.14100
F2079       F  0.60101697  0.63715224  0.23734279    -0.13200
F2080       F  0.61252129  0.70064201  0.14360972    -0.13700
F2081       F  0.62222746  0.66382267  0.27216664    -0.16000
F2082       F  0.59122381  0.67383277  0.10966859    -0.14500
F2083       F  0.56168771  0.64731109  0.21472293    -0.14500
F2084       F  0.57572518  0.61465664  0.05605804    -0.16000
C2085       C  0.53347143  0.67369548  0.44673542     0.14100
C2086       C  0.54799340  0.66483918  0.42562944     0.01100
C2087       C  0.54884028  0.64571608  0.42533974     0.16000
C2088       C  0.53541459  0.63545207  0.44637411     0.25500
C2089       C  0.52079551  0.64420028  0.46792073    -0.40900
C2090       C  0.51992315  0.66345532  0.46779959     0.32500
C2091       C  0.56213660  0.67542531  0.40278929     0.01100
F2092       F  0.56273885  0.63699337  0.40461415    -0.13200
F2093       F  0.50568503  0.67234728  0.48671683    -0.13700
C2094       C  0.57646640  0.68355201  0.42623101     0.16000
C2095       C  0.59032044  0.69299396  0.40416624     0.25500
C2096       C  0.58990593  0.69446518  0.35828036    -0.40800
C2097       C  0.57542073  0.68616942  0.33503336     0.32400
C2098       C  0.56171346  0.67671767  0.35717734     0.14100
F2099       F  0.57707195  0.68217223  0.47045707    -0.13200
F2100       F  0.57456983  0.68697484  0.29071113    -0.13700
F2101       F  0.60384725  0.70100877  0.42773129    -0.16000
F2102       F  0.54796617  0.66880199  0.33409314    -0.14500
F2103       F  0.53222270  0.69222376  0.44598179    -0.14500
F2104       F  0.53687343  0.61693373  0.44595828    -0.16000
C2105       C  0.91339419  0.70654425  0.17847237     0.14100
C2106       C  0.90675292  0.68855982  0.17753818     0.01100
C2107       C  0.88994288  0.68449468  0.19716947     0.16000
C2108       C  0.87942670  0.69843019  0.21573300     0.25500
C2109       C  0.88560919  0.71674642  0.21490375    -0.40900
C2110       C  0.90300930  0.72051131  0.19721859     0.32500
C2111       C  0.91649286  0.67449648  0.15215830     0.01100
F2112       F  0.88330665  0.66715122  0.19642566    -0.13200
F2113       F  0.90980476  0.73778884  0.19665453    -0.13700
C2114       C  0.92492178  0.65953546  0.17280151     0.16000
C2115       C  0.93422822  0.64641174  0.14798408     0.25500
C2116       C  0.93510914  0.64810105  0.10214013    -0.40800
C2117       C  0.92631176  0.66301512  0.08172376     0.32400
C2118       C  0.91715308  0.67606981  0.10654827     0.14100
F2119       F  0.92442976  0.65787163  0.21697900    -0.13200
F2120       F  0.92625907  0.66485368  0.03753528    -0.13700
F2121       F  0.94276512  0.63239216  0.16885992    -0.16000
F2122       F  0.90865939  0.69020045  0.08596759    -0.14500
F2123       F  0.92977837  0.71063957  0.16006485    -0.14500
F2124       F  0.86301110  0.69396885  0.23348416    -0.16000
C2125       C  0.84877475  0.74403180  0.44939682     0.14100
C2126       C  0.83064198  0.74231633  0.46341073     0.01100
C2127       C  0.81668615  0.73974799  0.43261534     0.16000
C2128       C  0.82076656  0.73967758  0.38790446     0.25500
C2129       C  0.83899001  0.74194442  0.37349508    -0.40900
C2130       C  0.85297503  0.74370558  0.40502006     0.32500
C2131       C  0.82688344  0.74176173  0.51060650     0.01100
F2132       F  0.79911662  0.73752642  0.44588447    -0.13200
F2133       F  0.87078123  0.74540842  0.39317395    -0.13700
C2134       C  0.82811879  0.75772141  0.53595061     0.16000
C2135       C  0.82868332  0.75654500  0.58166520     0.25500
C2136       C  0.82825411  0.73932511  0.60229436    -0.40800
C2137       C  0.82567299  0.72352790  0.57658379     0.32400
C2138       C  0.82502065  0.72477130  0.53117149     0.14100
F2139       F  0.82983496  0.77429412  0.51626675    -0.13200
F2140       F  0.82466623  0.70669671  0.59530246    -0.13700
F2141       F  0.83111235  0.77203963  0.60534022    -0.16000
F2142       F  0.82397655  0.70922305  0.50708045    -0.14500
F2143       F  0.86250645  0.74585839  0.47898117    -0.14500
F2144       F  0.80682963  0.73768444  0.35894033    -0.16000
C2145       C  0.83413578  0.77406928  0.03022768     0.14100
C2146       C  0.83660235  0.75736148  0.00884709     0.01100
C2147       C  0.83676517  0.74103204  0.03312395     0.16000
C2148       C  0.83524703  0.74151108  0.07869218     0.25500
C2149       C  0.83361600  0.75838552  0.10052867    -0.40900
C2150       C  0.83269961  0.77463363  0.07561183     0.32500
C2151       C  0.84126328  0.75733729  0.96208151     0.01100
F2152       F  0.83887006  0.72468998  0.01270078    -0.13200
F2153       F  0.83153378  0.79125028  0.09514867    -0.13700
C2154       C  0.85910643  0.75281766  0.94942700     0.16000
C2155       C  0.86396954  0.75306056  0.90544228     0.25500
C2156       C  0.85105580  0.75789652  0.87328229    -0.40800
C2157       C  0.83345697  0.76339541  0.88621726     0.32400
C2158       C  0.82851433  0.76292055  0.93039408     0.14100
F2159       F  0.87182672  0.74813329  0.97982653    -0.13200
F2160       F  0.82079355  0.76826790  0.85599753    -0.13700
F2161       F  0.88126090  0.74822132  0.89413898    -0.16000
F2162       F  0.81116001  0.76729802  0.94215283    -0.14500
F2163       F  0.83428749  0.78998154  0.00725191    -0.14500
F2164       F  0.83568662  0.72552457  0.10135077    -0.16000
C2165       C  0.89858701  0.82599881  0.12018381     0.14100
C2166       C  0.91721998  0.82253786  0.12753549     0.01100
C2167       C  0.92233339  0.80844161  0.15626875     0.16000
C2168       C  0.90901284  0.79828036  0.17836546     0.25500
C2169       C  0.89026761  0.80197548  0.17189892    -0.40900
C2170       C  0.88521466  0.81574535  0.14187650     0.32500
C2171       C  0.93134356  0.83400940  0.10633290     0.01100
F2172       F  0.94028168  0.80487883  0.16389316    -0.13200
F2173       F  0.86734331  0.81976719  0.13455621    -0.13700
C2174       C  0.93296213  0.85256324  0.11725327     0.16000
C2175       C  0.94661110  0.86337967  0.09830160     0.25500
C2176       C  0.95894802  0.85583844  0.06770064    -0.40800
C2177       C  0.95706410  0.83718816  0.05652956     0.32400
C2178       C  0.94344660  0.82641431  0.07582037     0.14100
F2179       F  0.92151985  0.86012524  0.14712588    -0.13200
F2180       F  0.96845244  0.82922711  0.02716765    -0.13700
F2181       F  0.94772162  0.88121848  0.11027423    -0.16000
F2182       F  0.94197327  0.80853057  0.06446883    -0.14500
F2183       F  0.89335463  0.83943054  0.09212002    -0.14500
F2184       F  0.91450681  0.78482347  0.20609220    -0.16000
C2185       C  0.75558917  0.75689031  0.22239967     0.14100
C2186       C  0.74769334  0.75873016  0.26377888     0.01100
C2187       C  0.75774141  0.76725133  0.29738170     0.16000
C2188       C  0.77599340  0.77264993  0.29031261     0.25500
C2189       C  0.78424351  0.76969767  0.24945892    -0.40900
C2190       C  0.77362280  0.76233882  0.21524739     0.32500
C2191       C  0.72865709  0.75240529  0.27052962     0.01100
F2192       F  0.75006578  0.76978289  0.33727929    -0.13200
F2193       F  0.78106760  0.75962883  0.17511456    -0.13700
C2194       C  0.72467884  0.73399127  0.28050184     0.16000
C2195       C  0.70641406  0.72807673  0.28469827     0.25500
C2196       C  0.69197262  0.74054544  0.27871618    -0.40800
C2197       C  0.69619747  0.75883398  0.26750457     0.32400
C2198       C  0.71427230  0.76464488  0.26351692     0.14100
F2199       F  0.73849908  0.72187268  0.28686387    -0.13200
F2200       F  0.68270163  0.77134599  0.26130594    -0.13700
F2201       F  0.70291919  0.71054860  0.29673658    -0.16000
F2202       F  0.71776321  0.78234916  0.25291748    -0.14500
F2203       F  0.74590307  0.74937195  0.18908575    -0.14500
F2204       F  0.78591187  0.77954645  0.32397027    -0.16000
C2205       C  0.32584348  0.26664489  0.54298341     0.14100
C2206       C  0.33916167  0.25700139  0.51962265     0.01100
C2207       C  0.35149342  0.24558678  0.54201071     0.16000
C2208       C  0.35099111  0.24441426  0.58753854     0.25500
C2209       C  0.33814110  0.25472012  0.61124060    -0.40900
C2210       C  0.32523357  0.26544207  0.58836274     0.32500
C2211       C  0.34008068  0.25862682  0.47177895     0.01100
F2212       F  0.36410587  0.23567627  0.51969556    -0.13200
F2213       F  0.31214476  0.27504182  0.60987569    -0.13700
C2214       C  0.35615471  0.26481909  0.45162303     0.16000
C2215       C  0.35777256  0.26434124  0.40624271     0.25500
C2216       C  0.34329422  0.25767747  0.38045170    -0.40800
C2217       C  0.32679351  0.25259221  0.40066948     0.32400
C2218       C  0.32520389  0.25310272  0.44604434     0.14100
F2219       F  0.37044989  0.27084896  0.47602356    -0.13200
F2220       F  0.31278477  0.24553924  0.37703105    -0.13700
F2221       F  0.37373370  0.26976060  0.38762635    -0.16000
F2222       F  0.30956298  0.24702626  0.46502302    -0.14500
F2223       F  0.31377721  0.27770290  0.52189325    -0.14500
F2224       F  0.36353854  0.23380023  0.60832527    -0.16000
C2225       C  0.33750579  0.21660887  0.04345907     0.14100
C2226       C  0.34033950  0.23290536  0.02016163     0.01100
C2227       C  0.34014857  0.24967484  0.04254194     0.16000
C2228       C  0.33802668  0.25013614  0.08780547     0.25500
C2229       C  0.33575741  0.23381981  0.11153242    -0.40900
C2230       C  0.33515765  0.21703972  0.08879143     0.32500
C2231       C  0.34449370  0.23263867  0.97294028     0.01100
F2232       F  0.34224720  0.26566185  0.02044062    -0.13200
F2233       F  0.33323647  0.20093972  0.11054252    -0.13700
C2234       C  0.33192754  0.22563037  0.94254945     0.16000
C2235       C  0.33510659  0.22761057  0.89766054     0.25500
C2236       C  0.35092511  0.23665052  0.88258390    -0.40800
C2237       C  0.36397133  0.24264646  0.91340502     0.32400
C2238       C  0.36079160  0.24055702  0.95799440     0.14100
F2239       F  0.31619274  0.21764279  0.95630200    -0.13200
F2240       F  0.37946997  0.25140018  0.90077223    -0.13700
F2241       F  0.32248712  0.22108322  0.86911490    -0.16000
F2242       F  0.37347428  0.24676651  0.98683864    -0.14500
F2243       F  0.33785536  0.20022764  0.02262710    -0.14500
F2244       F  0.33829387  0.26657136  0.10837618    -0.16000
C2245       C  0.42071736  0.21196172  0.66933299     0.14100
C2246       C  0.41715259  0.19327060  0.67639699     0.01100
C2247       C  0.40343192  0.18819107  0.70598941     0.16000
C2248       C  0.39295709  0.20148220  0.72692822     0.25500
C2249       C  0.39581209  0.22023557  0.71833399    -0.40900
C2250       C  0.41015328  0.22535841  0.69016061     0.32500
C2251       C  0.42666833  0.17900718  0.65068071     0.01100
F2252       F  0.39950925  0.17026888  0.71298287    -0.13200
F2253       F  0.41345615  0.24325268  0.68120106    -0.13700
C2254       C  0.43602197  0.16461145  0.67157924     0.16000
C2255       C  0.44395413  0.15054055  0.64704111     0.25500
C2256       C  0.44279438  0.15073185  0.60115014    -0.40800
C2257       C  0.43335903  0.16516248  0.58038421     0.32400
C2258       C  0.42535575  0.17910268  0.60491151     0.14100
F2259       F  0.43766935  0.16432435  0.71577633    -0.13200
F2260       F  0.43150776  0.16560377  0.53621180    -0.13700
F2261       F  0.45323034  0.13707799  0.66811443    -0.16000
F2262       F  0.41583635  0.19245486  0.58393852    -0.14500
F2263       F  0.43419319  0.21722121  0.64152638    -0.14500
F2264       F  0.37971414  0.19587642  0.75499659    -0.16000
C2265       C  0.40163981  0.36673753  0.88795475     0.14100
C2266       C  0.38739610  0.35836815  0.91172284     0.01100
C2267       C  0.38602590  0.36177282  0.95685860     0.16000
C2268       C  0.39956290  0.37186987  0.97837338     0.25500
C2269       C  0.41450112  0.37899080  0.95504767    -0.40900
C2270       C  0.41508381  0.37695700  0.90953688     0.32500
C2271       C  0.37595275  0.34399449  0.89075946     0.01100
F2272       F  0.37231030  0.35417704  0.98063958    -0.13200
F2273       F  0.42965538  0.38331631  0.88663925    -0.13700
C2274       C  0.37600721  0.32610264  0.90780289     0.16000
C2275       C  0.36800297  0.31173620  0.88460722     0.25500
C2276       C  0.36017594  0.31477046  0.84304897    -0.40800
C2277       C  0.35895819  0.33293118  0.82748401     0.32400
C2278       C  0.36669437  0.34738059  0.85126821     0.14100
F2279       F  0.38512469  0.32217690  0.94536400    -0.13200
F2280       F  0.35146720  0.33664432  0.78783420    -0.13700
F2281       F  0.36901521  0.29462095  0.90181300    -0.16000
F2282       F  0.36589005  0.36460433  0.83469460    -0.14500
F2283       F  0.40363693  0.36347000  0.84456490    -0.14500
F2284       F  0.39909641  0.37308209  0.02265189    -0.16000
C2285       C  0.40539226  0.30983601  0.60789104     0.14100
C2286       C  0.41973758  0.31964842  0.62766505     0.01100
C2287       C  0.41988941  0.32147848  0.67340553     0.16000
C2288       C  0.40629894  0.31328439  0.69894311     0.25500
C2289       C  0.39204672  0.30325829  0.67929904    -0.40900
C2290       C  0.39159316  0.30186319  0.63340036     0.32500
C2291       C  0.43416991  0.32862996  0.60086354     0.01100
F2292       F  0.43304003  0.33156242  0.69341045    -0.13200
F2293       F  0.37815846  0.29223277  0.61321941    -0.13700
C2294       C  0.42933881  0.34125080  0.56813672     0.16000
C2295       C  0.44280279  0.35121215  0.54610293     0.25500
C2296       C  0.46145205  0.34894492  0.55658759    -0.40800
C2297       C  0.46636566  0.33557856  0.58764069     0.32400
C2298       C  0.45284403  0.32551828  0.60954140     0.14100
F2299       F  0.41148926  0.34467610  0.55899774    -0.13200
F2300       F  0.48417054  0.33290022  0.59854589    -0.13700
F2301       F  0.43749551  0.36342830  0.51507996    -0.16000
F2302       F  0.45798444  0.31298519  0.63997961    -0.14500
F2303       F  0.40497127  0.30759175  0.56386651    -0.14500
F2304       F  0.40693286  0.31546273  0.74298637    -0.16000
C2305       C  0.13905907  0.25526645  0.99228773     0.14100
C2306       C  0.14730642  0.24085286  0.01535532     0.01100
C2307       C  0.15755256  0.22773094  0.99298445     0.16000
C2308       C  0.15878249  0.22841866  0.94760164     0.25500
C2309       C  0.14961120  0.24225376  0.92377840    -0.40900
C2310       C  0.14019789  0.25602055  0.94680149     0.32500
C2311       C  0.14442266  0.23906886  0.06259043     0.01100
F2312       F  0.16563304  0.21373550  0.01497870    -0.13200
F2313       F  0.13144140  0.26977573  0.92545274    -0.13700
C2314       C  0.12679698  0.23571266  0.07863282     0.16000
C2315       C  0.12355183  0.23575361  0.12346978     0.25500
C2316       C  0.13792439  0.23929439  0.15289484    -0.40800
C2317       C  0.15585921  0.24134074  0.13664740     0.32400
C2318       C  0.15904318  0.24123565  0.09171066     0.14100
F2319       F  0.11266347  0.23278667  0.05069134    -0.13200
F2320       F  0.17015151  0.24458788  0.16389057    -0.13700
F2321       F  0.10624582  0.23282328  0.13793025    -0.16000
F2322       F  0.17623114  0.24421302  0.07653150    -0.14500
F2323       F  0.12952609  0.26837610  0.01390209    -0.14500
F2324       F  0.16844374  0.21508611  0.92712131    -0.16000
C2325       C  0.14454836  0.24079576  0.49068539     0.14100
C2326       C  0.14396607  0.25713848  0.51462806     0.01100
C2327       C  0.14501241  0.27399110  0.49305113     0.16000
C2328       C  0.14601809  0.27459304  0.44775177     0.25500
C2329       C  0.14577225  0.25826620  0.42332661    -0.40900
C2330       C  0.14542167  0.24133995  0.44517009     0.32500
C2331       C  0.14100168  0.25678490  0.56190028     0.01100
F2332       F  0.14414690  0.28989763  0.51582360    -0.13200
F2333       F  0.14589532  0.22538525  0.42255575    -0.13700
C2334       C  0.15411160  0.26412438  0.59026542     0.16000
C2335       C  0.15091748  0.26435059  0.63513686     0.25500
C2336       C  0.13469896  0.25688804  0.65228837    -0.40800
C2337       C  0.12131385  0.25007744  0.62331419     0.32400
C2338       C  0.12448109  0.25007212  0.57848541     0.14100
F2339       F  0.17009059  0.27086990  0.57444257    -0.13200
F2340       F  0.10533217  0.24295376  0.63816339    -0.13700
F2341       F  0.16364483  0.27198906  0.66162373    -0.16000
F2342       F  0.11135608  0.24362349  0.55110856    -0.14500
F2343       F  0.14404016  0.22437031  0.51144508    -0.14500
F2344       F  0.14627869  0.29122117  0.42786185    -0.16000
C2345       C  0.08926224  0.31304904  0.83473270     0.14100
C2346       C  0.07518841  0.30906145  0.86421028     0.01100
C2347       C  0.06996907  0.29077453  0.87088114     0.16000
C2348       C  0.07908653  0.27656225  0.84918123     0.25500
C2349       C  0.09378938  0.28045220  0.82090006    -0.40900
C2350       C  0.09847702  0.29894755  0.81327078     0.32500
C2351       C  0.06641699  0.32397994  0.88913128     0.01100
F2352       F  0.05616560  0.28670700  0.89888792    -0.13200
F2353       F  0.11218798  0.30349359  0.78539537    -0.13700
C2354       C  0.05437783  0.33621543  0.86842760     0.16000
C2355       C  0.04582017  0.35009992  0.89240386     0.25500
C2356       C  0.04920802  0.35191855  0.93749288    -0.40800
C2357       C  0.06170719  0.33994671  0.95781285     0.32400
C2358       C  0.07027542  0.32613868  0.93375913     0.14100
F2359       F  0.05058074  0.33439506  0.82521651    -0.13200
F2360       F  0.06575889  0.34172369  0.00092300    -0.13700
F2361       F  0.03360706  0.36121395  0.87197891    -0.16000
F2362       F  0.08246944  0.31492058  0.95391838    -0.14500
F2363       F  0.09450589  0.33063486  0.82783265    -0.14500
F2364       F  0.07391240  0.25903247  0.85706286    -0.16000
C2365       C  0.05985800  0.18962986  0.87503509     0.14100
C2366       C  0.06486012  0.17698291  0.90731893     0.01100
C2367       C  0.08340783  0.17488972  0.91826614     0.16000
C2368       C  0.09689357  0.18487356  0.89596740     0.25500
C2369       C  0.09198932  0.19690694  0.86186168    -0.40900
C2370       C  0.07321320  0.19950017  0.85255634     0.32500
C2371       C  0.05066397  0.16540263  0.92776948     0.01100
F2372       F  0.08843133  0.16299069  0.95021041    -0.13200
F2373       F  0.06765654  0.21149000  0.82126643    -0.13700
C2374       C  0.04931194  0.14685484  0.91661843     0.16000
C2375       C  0.03517542  0.13606139  0.93351263     0.25500
C2376       C  0.02208313  0.14365783  0.96214653    -0.40800
C2377       C  0.02364236  0.16231749  0.97341643     0.32400
C2378       C  0.03773083  0.17306506  0.95615501     0.14100
F2379       F  0.06146094  0.13931191  0.88836121    -0.13200
F2380       F  0.01143747  0.17031745  0.00078956    -0.13700
F2381       F  0.03439252  0.11818359  0.92171694    -0.16000
F2382       F  0.03873344  0.19102843  0.96705648    -0.14500
F2383       F  0.04199061  0.19195044  0.86416740    -0.14500
F2384       F  0.11470951  0.18226445  0.90676459    -0.16000
C2385       C  0.21903996  0.25295728  0.73244318     0.14100
C2386       C  0.23260314  0.24407596  0.75707427     0.01100
C2387       C  0.22755912  0.22899877  0.78322837     0.16000
C2388       C  0.20912876  0.22345423  0.78611509     0.25500
C2389       C  0.19544899  0.23296338  0.76303769    -0.40900
C2390       C  0.20070696  0.24762377  0.73588146     0.32500
C2391       C  0.25188694  0.25076376  0.75565551     0.01100
F2392       F  0.24044706  0.21993513  0.80676298    -0.13200
F2393       F  0.18783124  0.25756946  0.71462259    -0.13700
C2394       C  0.26027948  0.25850683  0.79281167     0.16000
C2395       C  0.27868909  0.26420775  0.79152501     0.25500
C2396       C  0.28899499  0.26209318  0.75315040    -0.40800
C2397       C  0.28029045  0.25509982  0.71556774     0.32400
C2398       C  0.26195642  0.24962148  0.71672552     0.14100
F2399       F  0.25067760  0.26033168  0.83047349    -0.13200
F2400       F  0.28983402  0.25296269  0.67784360    -0.13700
F2401       F  0.28670128  0.27075938  0.82831209    -0.16000
F2402       F  0.25423961  0.24247209  0.68016944    -0.14500
F2403       F  0.22341057  0.26750982  0.70685252    -0.14500
F2404       F  0.20449924  0.20974601  0.81394162    -0.16000
C2405       C  0.06369088  0.82156310  0.66492389     0.14100
C2406       C  0.06551848  0.82405992  0.61961102     0.01100
C2407       C  0.08156612  0.81779428  0.59898911     0.16000
C2408       C  0.09550694  0.80929064  0.62326498     0.25500
C2409       C  0.09354974  0.80657647  0.66863025    -0.40900
C2410       C  0.07740059  0.81284521  0.68904109     0.32500
C2411       C  0.05097554  0.83385028  0.59457573     0.01100
F2412       F  0.08363815  0.81965427  0.55511931    -0.13200
F2413       F  0.07491404  0.81093981  0.73279828    -0.13700
C2414       C  0.05536198  0.84929071  0.56926044     0.16000
C2415       C  0.04165096  0.85930102  0.54806820     0.25500
C2416       C  0.02308512  0.85429319  0.55212832    -0.40800
C2417       C  0.01871582  0.83863966  0.57696369     0.32400
C2418       C  0.03251374  0.82848768  0.59770928     0.14100
F2419       F  0.07291673  0.85521260  0.56649966    -0.13200
F2420       F  0.00104085  0.83346911  0.58256473    -0.13700
F2421       F  0.04664189  0.87413099  0.52410874    -0.16000
F2422       F  0.02778179  0.81346757  0.62129006    -0.14500
F2423       F  0.04878258  0.82805841  0.68630801    -0.14500
F2424       F  0.11074128  0.80345115  0.60214630    -0.16000
C2425       C  0.99821836  0.90063381  0.73087474     0.14100
C2426       C  0.98155163  0.90049957  0.75385744     0.01100
C2427       C  0.96515515  0.90301328  0.73096179     0.16000
C2428       C  0.96530410  0.90510546  0.68565124     0.25500
C2429       C  0.98190379  0.90443061  0.66214658    -0.40900
C2430       C  0.99840130  0.90245063  0.68534127     0.32500
C2431       C  0.98120062  0.89629496  0.80111751     0.01100
F2432       F  0.94888147  0.90253779  0.75225920    -0.13200
F2433       F  0.01468671  0.90226923  0.66407593    -0.13700
C2434       C  0.97357372  0.90855506  0.83146206     0.16000
C2435       C  0.97444177  0.90477167  0.87638145     0.25500
C2436       C  0.98297434  0.88866820  0.89137908    -0.40800
C2437       C  0.98928372  0.87583431  0.86045350     0.32400
C2438       C  0.98851391  0.87968818  0.81593329     0.14100
F2439       F  0.96611840  0.92458018  0.81772640    -0.13200
F2440       F  0.99678478  0.85968778  0.87330264    -0.13700
F2441       F  0.96797893  0.91734748  0.90506264    -0.16000
F2442       F  0.99519658  0.86724936  0.78714339    -0.14500
F2443       F  0.01431787  0.89878171  0.75260000    -0.14500
F2444       F  0.94902950  0.90697698  0.66472590    -0.16000
C2445       C  0.98659768  0.91612633  0.22705652     0.14100
C2446       C  0.00249676  0.91577498  0.25282116     0.01100
C2447       C  0.01966755  0.91616668  0.23275928     0.16000
C2448       C  0.02102001  0.91533323  0.18741093     0.25500
C2449       C  0.00514908  0.91392212  0.16141200    -0.40900
C2450       C  0.98789577  0.91532498  0.18142811     0.32500
C2451       C  0.00139388  0.91161149  0.29975105     0.01100
F2452       F  0.03514853  0.91604061  0.25730732    -0.13200
F2453       F  0.97234079  0.91442128  0.15727764    -0.13700
C2454       C  0.00202363  0.89329403  0.31316199     0.16000
C2455       C  0.00136909  0.88879429  0.35742761     0.25500
C2456       C  0.00005316  0.90262384  0.38933601    -0.40800
C2457       C  0.99975070  0.92111060  0.37554805     0.32400
C2458       C  0.00045429  0.92552394  0.33101301     0.14100
F2459       F  0.00319863  0.87970899  0.28307504    -0.13200
F2460       F  0.99822276  0.93493679  0.40488329    -0.13700
F2461       F  0.00185570  0.87084055  0.36880136    -0.16000
F2462       F  0.00007107  0.94333099  0.31834472    -0.14500
F2463       F  0.96986866  0.91594501  0.24622649    -0.14500
F2464       F  0.03792494  0.91501697  0.16906513    -0.16000
C2465       C  0.89479332  0.86476920  0.43056346     0.14100
C2466       C  0.89773079  0.85830162  0.38794030     0.01100
C2467       C  0.91364219  0.86380894  0.36570608     0.16000
C2468       C  0.92695709  0.87449305  0.38684716     0.25500
C2469       C  0.92456625  0.88006901  0.43064113    -0.40900
C2470       C  0.90792644  0.87567008  0.45154097     0.32500
C2471       C  0.88517744  0.84439295  0.36853991     0.01100
F2472       F  0.91688991  0.85778394  0.32449052    -0.13200
F2473       F  0.90495743  0.88055133  0.49372249    -0.13700
C2474       C  0.87492031  0.84817263  0.33071270     0.16000
C2475       C  0.86421232  0.83448154  0.31100404     0.25500
C2476       C  0.86369464  0.81655966  0.32847207    -0.40800
C2477       C  0.87336551  0.81316310  0.36771692     0.32400
C2478       C  0.88398027  0.82686746  0.38726379     0.14100
F2479       F  0.87556877  0.86506927  0.31231383    -0.13200
F2480       F  0.87330047  0.79629372  0.38639568    -0.13700
F2481       F  0.85509485  0.83862047  0.27360258    -0.16000
F2482       F  0.89392197  0.82270072  0.42345501    -0.14500
F2483       F  0.87950638  0.85978145  0.45270671    -0.14500
F2484       F  0.94261742  0.87860071  0.36513474    -0.16000
C2485       C  0.92153015  0.84280640  0.65403779     0.14100
C2486       C  0.92018165  0.82473361  0.63933275     0.01100
C2487       C  0.92847117  0.81973191  0.59984823     0.16000
C2488       C  0.93771423  0.83274906  0.57471922     0.25500
C2489       C  0.93887249  0.85109048  0.58881572    -0.40900
C2490       C  0.93082155  0.85587614  0.62919694     0.32500
C2491       C  0.90896648  0.81134699  0.66335376     0.01100
F2492       F  0.92707698  0.80230749  0.58493585    -0.13200
F2493       F  0.93164630  0.87324395  0.64463180    -0.13700
C2494       C  0.88987054  0.81289622  0.66248095     0.16000
C2495       C  0.87897861  0.79938964  0.68152232     0.25500
C2496       C  0.88704383  0.78412339  0.70214887    -0.40800
C2497       C  0.90627309  0.78303194  0.70454266     0.32400
C2498       C  0.91713567  0.79650500  0.68497000     0.14100
F2499       F  0.88177223  0.82724519  0.64187185    -0.13200
F2500       F  0.91458690  0.76860295  0.72429404    -0.13700
F2501       F  0.86052206  0.80127003  0.67964071    -0.16000
F2502       F  0.93562970  0.79497871  0.68657592    -0.14500
F2503       F  0.91368028  0.84782224  0.69238745    -0.14500
F2504       F  0.94525362  0.82734958  0.53631877    -0.16000
C2505       C  0.92137401  0.19089074  0.36937376     0.14100
C2506       C  0.91678507  0.18430075  0.41096756     0.01100
C2507       C  0.89893300  0.18695596  0.42663533     0.16000
C2508       C  0.88571298  0.19572431  0.40063839     0.25500
C2509       C  0.89006438  0.20182954  0.35804142    -0.40900
C2510       C  0.90822911  0.19949709  0.34313778     0.32500
C2511       C  0.93020944  0.17321116  0.43602959     0.01100
F2512       F  0.89427846  0.18089218  0.46708680    -0.13200
F2513       F  0.91332380  0.20512301  0.30262970    -0.13700
C2514       C  0.94546273  0.18132216  0.45615730     0.16000
C2515       C  0.95867797  0.17045535  0.47722513     0.25500
C2516       C  0.95687215  0.15124424  0.47837088    -0.40800
C2517       C  0.94146600  0.14325912  0.45815537     0.32400
C2518       C  0.92832615  0.15413507  0.43731853     0.14100
F2519       F  0.94758314  0.19976450  0.45519822    -0.13200
F2520       F  0.93943684  0.12480701  0.45684031    -0.13700
F2521       F  0.97317725  0.17874596  0.49656714    -0.16000
F2522       F  0.91402556  0.14596600  0.41684362    -0.14500
F2523       F  0.93851356  0.18837424  0.35344669    -0.14500
F2524       F  0.86867081  0.19810935  0.41723834    -0.16000
C2525       C  0.99788880  0.12473779  0.21274945     0.14100
C2526       C  0.99982711  0.10695824  0.22978805     0.01100
C2527       C  0.00296087  0.09234792  0.20075680     0.16000
C2528       C  0.00306714  0.09533627  0.15552418     0.25500
C2529       C  0.99953324  0.11286471  0.13861166    -0.40900
C2530       C  0.99750913  0.12761947  0.16759638     0.32500
C2531       C  0.99813698  0.10367312  0.27759168     0.01100
F2532       F  0.00471144  0.07497841  0.21599521    -0.13200
F2533       F  0.99447114  0.14476775  0.15204556    -0.13700
C2534       C  0.98283965  0.11012640  0.30093532     0.16000
C2535       C  0.98174162  0.10787521  0.34637319     0.25500
C2536       C  0.99581601  0.09884201  0.36934924    -0.40800
C2537       C  0.01062227  0.09153855  0.34532273     0.32400
C2538       C  0.01187465  0.09418954  0.30024752     0.14100
F2539       F  0.96893228  0.11868541  0.27970363    -0.13200
F2540       F  0.02432508  0.08219788  0.36540031    -0.13700
F2541       F  0.96706951  0.11486923  0.36777360    -0.16000
F2542       F  0.02697127  0.08806734  0.27900649    -0.14500
F2543       F  0.99591380  0.13928612  0.23986098    -0.14500
F2544       F  0.00499445  0.08082101  0.12831857    -0.16000
C2545       C  0.96243453  0.08223180  0.80138356     0.14100
C2546       C  0.97908847  0.08640045  0.78080697     0.01100
C2547       C  0.99514403  0.08690214  0.80634626     0.16000
C2548       C  0.99427715  0.08517057  0.85202978     0.25500
C2549       C  0.97730612  0.08295316  0.87294156    -0.40900
C2550       C  0.96157001  0.08040860  0.84686628     0.32500
C2551       C  0.97940368  0.09203737  0.73389293     0.01100
F2552       F  0.01158970  0.08995468  0.78715655    -0.13200
F2553       F  0.94504363  0.07723244  0.86564094    -0.13700
C2554       C  0.98624234  0.10934180  0.72216273     0.16000
C2555       C  0.98663819  0.11495388  0.67834610     0.25500
C2556       C  0.97995596  0.10346578  0.64492904    -0.40800
C2557       C  0.97220292  0.08650729  0.65711620     0.32400
C2558       C  0.97215037  0.08077599  0.70095215     0.14100
F2559       F  0.99242004  0.12097700  0.75340227    -0.13200
F2560       F  0.96455689  0.07541698  0.62666901    -0.13700
F2561       F  0.99398542  0.13153020  0.66878679    -0.16000
F2562       F  0.96531951  0.06402858  0.71106548    -0.14500
F2563       F  0.94669757  0.08134727  0.77789812    -0.14500
F2564       F  0.00981220  0.08717895  0.87584426    -0.16000
C2565       C  0.10665948  0.15066719  0.69934881     0.14100
C2566       C  0.09992354  0.15350682  0.65684566     0.01100
C2567       C  0.10456496  0.16976381  0.63481268     0.16000
C2568       C  0.11433441  0.18359690  0.65624766     0.25500
C2569       C  0.11972345  0.18144634  0.70019075    -0.40900
C2570       C  0.11652609  0.16443843  0.72079514     0.32500
C2571       C  0.08599158  0.14096463  0.63783310     0.01100
F2572       F  0.09834356  0.17289494  0.59364784    -0.13200
F2573       F  0.12147333  0.16165237  0.76307520    -0.13700
C2574       C  0.06904370  0.13878823  0.65886794     0.16000
C2575       C  0.05455364  0.12985326  0.63796003     0.25500
C2576       C  0.05660454  0.12296047  0.59522384    -0.40800
C2577       C  0.07409650  0.12384673  0.57566471     0.32400
C2578       C  0.08859007  0.13282707  0.59674415     0.14100
F2579       F  0.06605389  0.14654465  0.69850563    -0.13200
F2580       F  0.07694813  0.11716752  0.53486195    -0.13700
F2581       F  0.03819835  0.12888478  0.65879450    -0.16000
F2582       F  0.10497973  0.13424837  0.57621042    -0.14500
F2583       F  0.10277490  0.13491400  0.72101682    -0.14500
F2584       F  0.11761582  0.19951939  0.63472563    -0.16000
C2585       C  0.05681745  0.16121053  0.37082757     0.14100
C2586       C  0.05916932  0.17914466  0.38608022     0.01100
C2587       C  0.05162661  0.18412481  0.42646381     0.16000
C2588       C  0.04208758  0.17132255  0.45166900     0.25500
C2589       C  0.03981265  0.15316894  0.43684994    -0.40900
C2590       C  0.04716707  0.14836603  0.39574045     0.32500
C2591       C  0.07019949  0.19247866  0.36093485     0.01100
F2592       F  0.05401547  0.20131535  0.44219841    -0.13200
F2593       F  0.04526790  0.13118228  0.37958781    -0.13700
C2594       C  0.06232193  0.20873665  0.34519513     0.16000
C2595       C  0.07307784  0.22182316  0.32379334     0.25500
C2596       C  0.09196721  0.21885542  0.31775097    -0.40800
C2597       C  0.09968453  0.20229795  0.33286155     0.32400
C2598       C  0.08890022  0.18930002  0.35423092     0.14100
F2599       F  0.04417376  0.21191950  0.35060486    -0.13200
F2600       F  0.11783680  0.19886167  0.32843043    -0.13700
F2601       F  0.06496058  0.23737818  0.30911708    -0.16000
F2602       F  0.09689331  0.17384600  0.36989700    -0.14500
F2603       F  0.06390992  0.15613706  0.33168469    -0.14500
F2604       F  0.03532638  0.17674988  0.49085307    -0.16000
C2605       C  0.97376951  0.98710651  0.49287172     0.14100
C2606       C  0.98418125  0.99414505  0.52793459     0.01100
C2607       C  0.98792154  0.98280537  0.56381356     0.16000
C2608       C  0.98231477  0.96461208  0.56375732     0.25500
C2609       C  0.97325192  0.95704748  0.52723695    -0.40900
C2610       C  0.96838315  0.96860878  0.49244656     0.32500
C2611       C  0.99181828  0.01299711  0.52692199     0.01100
F2612       F  0.99809294  0.98899930  0.59788048    -0.13200
F2613       F  0.95958129  0.96178141  0.45700479    -0.13700
C2614       C  0.98828222  0.02525812  0.56130132     0.16000
C2615       C  0.99529553  0.04304505  0.56009981     0.25500
C2616       C  0.00569873  0.04903682  0.52436771    -0.40800
C2617       C  0.00997038  0.03660822  0.49096985     0.32400
C2618       C  0.00324955  0.01865342  0.49244991     0.14100
F2619       F  0.97722593  0.02033085  0.59494809    -0.13200
F2620       F  0.01963245  0.04222890  0.45554332    -0.13700
F2621       F  0.99092525  0.05487776  0.59249555    -0.16000
F2622       F  0.00760177  0.00689263  0.45979340    -0.14500
F2623       F  0.96926445  0.99802733  0.45858722    -0.14500
F2624       F  0.98679961  0.95398165  0.59866914    -0.16000
loop_ 
_geom_bond_atom_site_label_1 
_geom_bond_atom_site_label_2 
_geom_bond_distance 
_geom_bond_site_symmetry_2 
_ccdc_geom_bond_type 
O1          Cr19   2.022   1_655  S
O1            C9   1.273       .  A
O2          Cr19   1.978       .  S
O2            C3   1.260       .  A
C3            O4   1.265       .  A
C3         C2576   1.494       .  S
O4          Cr20   2.012       .  S
O5          Cr20   2.003       .  S
O5            C6   1.266       .  A
C6            O7   1.260   1_455  A
C6         C2616   1.469       .  S
O7          Cr21   1.987       .  S
O8          Cr21   1.982       .  S
O8            C9   1.265       .  A
C9         C2556   1.498       .  S
O10         Cr19   1.994   1_655  S
O10          C18   1.258       .  A
O11         Cr19   2.009       .  S
O11          C12   1.268       .  A
C12          O13   1.263       .  A
C12        C2589   1.492       .  S
O13         Cr20   1.978       .  S
O14         Cr20   1.999       .  S
O14          C15   1.266   1_455  A
C15          O16   1.267       .  A
C15        C2536   1.489       .  S
O16         Cr21   1.996       .  S
O17         Cr21   1.997       .  S
O17          C18   1.259       .  A
C18        C2516   1.492       .  S
Cr19         O22   1.769       .  S
Cr20         O22   1.773       .  S
Cr21         O22   1.772   1_655  S
O23         Cr41   1.972       .  S
O23          C31   1.264       .  A
O24         Cr41   1.967       .  S
O24          C25   1.256       .  A
C25          O26   1.269       .  A
C25        C2609   1.481       .  S
O26         Cr42   2.019       .  S
O27         Cr42   2.024       .  S
O27          C28   1.270       .  A
C28          O29   1.259       .  A
C28        C2469   1.497       .  S
O29         Cr43   1.976       .  S
O30         Cr43   2.012       .  S
O30          C31   1.273       .  A
C31        C2456   1.485   1_655  S
O32         Cr41   1.995   1_455  S
O32          C40   1.256       .  A
O33         Cr41   1.987       .  S
O33          C34   1.270       .  A
C34          O35   1.270       .  A
C34        C2429   1.480       .  S
O35         Cr42   2.004       .  S
O36         Cr42   1.971       .  S
O36          C37   1.259       .  A
C37          O38   1.265       .  A
C37        C2489   1.487       .  S
O38         Cr43   1.999       .  S
O39         Cr43   1.996       .  S
O39          C40   1.257   1_655  A
C40        C2416   1.490       .  S
Cr41         O44   1.769       .  S
Cr42         O44   1.772       .  S
Cr43         O44   1.769       .  S
O45         Cr63   1.996       .  S
O45          C53   1.265       .  A
O46         Cr63   1.980       .  S
O46          C47   1.262       .  A
C47          O48   1.268       .  A
C47        C2569   1.491       .  S
O48         Cr64   2.015       .  S
O49         Cr64   2.024       .  S
O49          C50   1.271       .  A
C50          O51   1.258       .  A
C50        C2389   1.486       .  S
O51         Cr65   1.983       .  S
O52         Cr65   1.972       .  S
O52          C53   1.263       .  A
C53        C2336   1.474       .  S
O54         Cr63   1.997       .  S
O54          C62   1.260       .  A
O55         Cr63   1.981       .  S
O55          C56   1.261       .  A
C56          O57   1.266       .  A
C56        C2369   1.489       .  S
O57         Cr64   2.003       .  S
O58         Cr64   1.996       .  S
O58          C59   1.267       .  A
C59          O60   1.265       .  A
C59        C2309   1.479       .  S
O60         Cr65   1.978       .  S
O61         Cr65   1.992       .  S
O61          C62   1.258       .  A
C62        C2349   1.488       .  S
Cr63         O66   1.769       .  S
Cr64         O66   1.773       .  S
Cr65         O66   1.770       .  S
O67         Cr85   1.979       .  S
O67          C75   1.265       .  A
O68         Cr85   1.986       .  S
O68          C69   1.259       .  A
C69          O70   1.269       .  A
C69        C2396   1.485       .  S
O70         Cr86   2.019       .  S
O71         Cr86   2.019       .  S
O71          C72   1.269       .  A
C72          O73   1.259       .  A
C72        C2276   1.491       .  S
O73         Cr87   1.967       .  S
O74         Cr87   2.004       .  S
O74          C75   1.268       .  A
C75        C2236   1.482       .  S
O76         Cr85   1.994       .  S
O76          C84   1.259       .  A
O77         Cr85   1.979       .  S
O77          C78   1.266       .  A
C78          O79   1.267       .  A
C78        C2209   1.474       .  S
O79         Cr86   1.996       .  S
O80         Cr86   1.993       .  S
O80          C81   1.262       .  A
C81          O82   1.263       .  A
C81        C2289   1.486       .  S
O82         Cr87   1.998       .  S
O83         Cr87   1.990       .  S
O83          C84   1.259       .  A
C84        C2249   1.483       .  S
Cr85         O88   1.768       .  S
Cr86         O88   1.771       .  S
Cr87         O88   1.767       .  S
O89        Cr107   1.972       .  S
O89          C97   1.263       .  A
O90        Cr107   1.979       .  S
O90          C91   1.258       .  A
C91          O92   1.268       .  A
C91        C2189   1.480       .  S
O92        Cr108   2.020       .  S
O93        Cr108   2.026       .  S
O93          C94   1.269       .  A
C94          O95   1.258       .  A
C94        C2476   1.501       .  S
O95        Cr109   1.971       .  S
O96        Cr109   2.007       .  S
O96          C97   1.270       .  A
C97        C2129   1.484       .  S
O98        Cr107   2.000       .  S
O98         C106   1.258       .  A
O99        Cr107   1.979       .  S
O99         C100   1.267       .  A
C100        O101   1.271       .  A
C100       C2149   1.480       .  S
O101       Cr108   2.011       .  S
O102       Cr108   1.981       .  S
O102        C103   1.263       .  A
C103        O104   1.266       .  A
C103       C2169   1.485       .  S
O104       Cr109   2.001       .  S
O105       Cr109   1.979       .  S
O105        C106   1.256       .  A
C106       C2109   1.485       .  S
Cr107       O110   1.772       .  S
Cr108       O110   1.769       .  S
Cr109       O110   1.764       .  S
O111       Cr129   2.000       .  S
O111        C119   1.268       .  A
O112       Cr129   1.974       .  S
O112        C113   1.260       .  A
C113        O114   1.268       .  A
C113       C2076   1.496       .  S
O114       Cr130   2.018       .  S
O115       Cr130   2.028       .  S
O115        C116   1.272       .  A
C116        O117   1.256       .  A
C116       C2196   1.486       .  S
O117       Cr131   1.973       .  S
O118       Cr131   1.984       .  S
O118        C119   1.265       .  A
C119       C2009   1.486       .  S
O120       Cr129   1.982       .  S
O120        C128   1.256       .  A
O121       Cr129   1.981       .  S
O121        C122   1.262       .  A
C122        O123   1.266       .  A
C122       C2096   1.479       .  S
O123       Cr130   1.994       .  S
O124       Cr130   2.002       .  S
O124        C125   1.269       .  A
C125        O126   1.267       .  A
C125       C2029   1.484       .  S
O126       Cr131   1.985       .  S
O127       Cr131   1.989       .  S
O127        C128   1.257       .  A
C128       C2049   1.475       .  S
Cr129       O132   1.763       .  S
Cr130       O132   1.769       .  S
Cr131       O132   1.767       .  S
O133       Cr151   2.001       .  S
O133        C141   1.269       .  A
O134       Cr151   1.980       .  S
O134        C135   1.262       .  A
C135        O136   1.269       .  A
C135       C2069   1.497       .  S
O136       Cr152   2.013   1_554  S
O137       Cr152   2.038   1_554  S
O137        C138   1.271       .  A
C138        O139   1.253   1_554  A
C138       C1996   1.492       .  S
O139       Cr153   1.969   1_556  S
O140       Cr153   1.986       .  S
O140        C141   1.268       .  A
C141       C1956   1.485       .  S
O142       Cr151   2.005       .  S
O142        C150   1.259       .  A
O143       Cr151   1.980       .  S
O143        C144   1.259   1_554  A
C144        O145   1.265       .  A
C144       C1969   1.485       .  S
O145       Cr152   1.997       .  S
O146       Cr152   2.006       .  S
O146        C147   1.271       .  A
C147        O148   1.271       .  A
C147       C1936   1.487       .  S
O148       Cr153   1.989   1_556  S
O149       Cr153   1.987       .  S
O149        C150   1.254       .  A
C150       C1916   1.492   1_554  S
Cr151       O154   1.772       .  S
Cr152       O154   1.770   1_556  S
Cr153       O154   1.769       .  S
O155       Cr173   2.017   1_556  S
O155        C163   1.270       .  A
O156       Cr173   1.957   1_556  S
O156        C157   1.253   1_556  A
C157        O158   1.273       .  A
C157       C1989   1.497       .  S
O158       Cr174   2.050       .  S
O159       Cr174   1.992   1_556  S
O159        C160   1.264       .  A
C160        O161   1.263       .  A
C160       C2269   1.468       .  S
O161       Cr175   1.996   1_556  S
O162       Cr175   1.943   1_556  S
O162        C163   1.257       .  A
C163       C1876   1.466       .  S
O164       Cr173   1.960       .  S
O164        C172   1.253       .  A
O165       Cr173   2.019       .  S
O165        C166   1.268       .  A
C166        O167   1.255       .  A
C166       C1849   1.467       .  S
O167       Cr174   1.943       .  S
O168       Cr174   2.033       .  S
O168        C169   1.274       .  A
C169        O170   1.260       .  A
C169       C1889   1.476       .  S
O170       Cr175   1.959       .  S
O171       Cr175   2.010       .  S
O171        C172   1.262       .  A
C172       C1836   1.478       .  S
Cr173       O176   1.767       .  S
Cr174       O176   1.774       .  S
Cr175       O176   1.769       .  S
O177       Cr195   1.998       .  S
O177        C185   1.265       .  A
O178       Cr195   1.974       .  S
O178        C179   1.261       .  A
C179        O180   1.269       .  A
C179       C1796   1.489       .  S
O180       Cr196   2.015       .  S
O181       Cr196   2.012       .  S
O181        C182   1.266       .  A
C182        O183   1.258       .  A
C182       C1809   1.474       .  S
O183       Cr197   1.981       .  S
O184       Cr197   1.964       .  S
O184        C185   1.260       .  A
C185       C1736   1.470       .  S
O186       Cr195   1.982       .  S
O186        C194   1.259       .  A
O187       Cr195   1.990       .  S
O187        C188   1.262       .  A
C188        O189   1.264       .  A
C188       C2409   1.491       .  S
O189       Cr196   2.000       .  S
O190       Cr196   2.007       .  S
O190        C191   1.269       .  A
C191        O192   1.262       .  A
C191       C1756   1.478       .  S
O192       Cr197   1.961       .  S
O193       Cr197   1.997       .  S
O193        C194   1.261       .  A
C194       C1769   1.482       .  S
Cr195       O198   1.767       .  S
Cr196       O198   1.772       .  S
Cr197       O198   1.770       .  S
O199       Cr217   1.954       .  S
O199        C207   1.260       .  A
O200       Cr217   1.978       .  S
O200        C201   1.258       .  A
C201        O202   1.269       .  A
C201       C1816   1.483       .  S
O202       Cr218   2.019       .  S
O203       Cr218   2.014       .  S
O203        C204   1.267       .  A
C204        O205   1.260       .  A
C204       C1709   1.488       .  S
O205       Cr219   1.978       .  S
O206       Cr219   2.011       .  S
O206        C207   1.271       .  A
C207       C1676   1.469       .  S
O208       Cr217   1.986       .  S
O208        C216   1.256       .  A
O209       Cr217   1.965       .  S
O209        C210   1.263       .  A
C210        O211   1.268       .  A
C210       C1656   1.456       .  S
O211       Cr218   2.007       .  S
O212       Cr218   1.995       .  S
O212        C213   1.265       .  A
C213        O214   1.264       .  A
C213       C1909   1.493       .  S
O214       Cr219   1.994       .  S
O215       Cr219   1.999       .  S
O215        C216   1.258       .  A
C216       C1689   1.475       .  S
Cr217       O220   1.765       .  S
Cr218       O220   1.771       .  S
Cr219       O220   1.765       .  S
O221       Cr239   1.942   1_556  S
O221        C229   1.256   1_455  A
O222       Cr239   2.002   1_556  S
O222        C223   1.267       .  A
C223        O224   1.265       .  A
C223       C1789   1.469       .  S
O224       Cr240   1.986   1_556  S
O225       Cr240   2.019       .  S
O225        C226   1.264       .  A
C226        O227   1.254   1_454  A
C226       C1629   1.486       .  S
O227       Cr241   1.973   1_556  S
O228       Cr241   2.028   1_556  S
O228        C229   1.272       .  A
C229       C2436   1.481       .  S
O230       Cr239   2.004   1_655  S
O230        C238   1.262       .  A
O231       Cr239   1.977       .  S
O231        C232   1.260       .  A
C232        O233   1.268       .  A
C232       C1616   1.483       .  S
O233       Cr240   2.020       .  S
O234       Cr240   1.950       .  S
O234        C235   1.260       .  A
C235        O236   1.273   1_455  A
C235       C2449   1.476       .  S
O236       Cr241   2.028       .  S
O237       Cr241   1.975       .  S
O237        C238   1.256       .  A
C238       C2176   1.492       .  S
Cr239       O242   1.767       .  S
Cr240       O242   1.775       .  S
Cr241       O242   1.774   1_655  S
O243       Cr261   2.028   1_455  S
O243        C251   1.273   1_455  A
O244       Cr261   1.947       .  S
O244        C245   1.247       .  A
C245        O246   1.272       .  A
C245       C1636   1.495       .  S
O246       Cr262   2.051   1_554  S
O247       Cr262   2.001   1_554  S
O247        C248   1.267       .  A
C248        O249   1.262       .  A
C248       C1569   1.474       .  S
O249       Cr263   1.990       .  S
O250       Cr263   1.952       .  S
O250        C251   1.258       .  A
C251       C2529   1.474       .  S
O252       Cr261   1.974   1_456  S
O252        C260   1.254       .  A
O253       Cr261   2.036   1_556  S
O253        C254   1.273       .  A
C254        O255   1.256       .  A
C254       C2549   1.488       .  S
O255       Cr262   1.951       .  S
O256       Cr262   2.028       .  S
O256        C257   1.274       .  A
C257        O258   1.262       .  A
C257       C1589   1.479       .  S
O258       Cr263   1.962   1_556  S
O259       Cr263   2.006       .  S
O259        C260   1.261   1_654  A
C260       C2376   1.489       .  S
Cr261       O264   1.767       .  S
Cr262       O264   1.782   1_556  S
Cr263       O264   1.766       .  S
O265       Cr283   2.023       .  S
O265        C273   1.271       .  A
O266       Cr283   1.954       .  S
O266        C267   1.253       .  A
C267        O268   1.272       .  A
C267       C1556   1.493       .  S
O268       Cr284   2.043       .  S
O269       Cr284   1.992       .  S
O269        C270   1.265       .  A
C270        O271   1.266       .  A
C270       C1716   1.478       .  S
O271       Cr285   2.000       .  S
O272       Cr285   1.954       .  S
O272        C273   1.258       .  A
C273       C1929   1.474       .  S
O274       Cr283   1.958       .  S
O274        C282   1.252       .  A
O275       Cr283   2.021       .  S
O275        C276   1.268       .  A
C276        O277   1.255       .  A
C276       C1949   1.469       .  S
O277       Cr284   1.951       .  S
O278       Cr284   2.031       .  S
O278        C279   1.273       .  A
C279        O280   1.257       .  A
C279       C1536   1.479       .  S
O280       Cr285   1.956       .  S
O281       Cr285   2.008       .  S
O281        C282   1.263       .  A
C282       C2089   1.477       .  S
Cr283       O286   1.767       .  S
Cr284       O286   1.778       .  S
Cr285       O286   1.767       .  S
O287       Cr305   2.003       .  S
O287        C295   1.268       .  A
O288       Cr305   1.981       .  S
O288        C289   1.262       .  A
C289        O290   1.267       .  A
C289       C1496   1.494       .  S
O290       Cr306   2.014       .  S
O291       Cr306   2.015       .  S
O291        C292   1.269       .  A
C292        O293   1.259       .  A
C292       C1549   1.481       .  S
O293       Cr307   1.976       .  S
O294       Cr307   1.973       .  S
O294        C295   1.264       .  A
C295       C1856   1.481       .  S
O296       Cr305   1.996       .  S
O296        C304   1.259       .  A
O297       Cr305   1.989       .  S
O297        C298   1.262       .  A
C298        O299   1.261       .  A
C298       C1509   1.475       .  S
O299       Cr306   1.983       .  S
O300       Cr306   1.993       .  S
O300        C301   1.265       .  A
C301        O302   1.268       .  A
C301       C1869   1.472       .  S
O302       Cr307   1.986       .  S
O303       Cr307   1.996       .  S
O303        C304   1.258       .  A
C304       C2296   1.486       .  S
Cr305       O308   1.769       .  S
Cr306       O308   1.772       .  S
Cr307       O308   1.770       .  S
O309       Cr327   1.981       .  S
O309        C317   1.267       .  A
O310       Cr327   1.985       .  S
O310        C311   1.257       .  A
C311        O312   1.268       .  A
C311       C1469   1.476       .  S
O312       Cr328   2.020       .  S
O313       Cr328   2.003       .  S
O313        C314   1.264       .  A
C314        O315   1.260       .  A
C314       C1576   1.490       .  S
O315       Cr329   1.987       .  S
O316       Cr329   2.002       .  S
O316        C317   1.270       .  A
C317       C1429   1.481       .  S
O318       Cr327   2.000       .  S
O318        C326   1.257       .  A
O319       Cr327   1.991       .  S
O319        C320   1.270       .  A
C320        O321   1.265       .  A
C320       C1416   1.480       .  S
O321       Cr328   1.990       .  S
O322       Cr328   1.997       .  S
O322        C323   1.266       .  A
C323        O324   1.266       .  A
C323       C2509   1.498       .  S
O324       Cr329   1.997       .  S
O325       Cr329   1.996       .  S
O325        C326   1.259       .  A
C326       C1449   1.497       .  S
Cr327       O330   1.774       .  S
Cr328       O330   1.774       .  S
Cr329       O330   1.768       .  S
O331       Cr349   2.018       .  S
O331        C339   1.272       .  A
O332       Cr349   1.973       .  S
O332        C333   1.260       .  A
C333        O334   1.271       .  A
C333       C1489   1.498       .  S
O334       Cr350   2.029       .  S
O335       Cr350   2.019       .  S
O335        C336   1.268       .  A
C336        O337   1.257       .  A
C336       C1476   1.479       .  S
O337       Cr351   1.971       .  S
O338       Cr351   1.962       .  S
O338        C339   1.262       .  A
C339       C1369   1.472       .  S
O340       Cr349   1.993       .  S
O340        C348   1.256       .  A
O341       Cr349   1.995       .  S
O341        C342   1.264       .  A
C342        O343   1.260       .  A
C342       C1829   1.485       .  S
O343       Cr350   1.976       .  S
O344       Cr350   2.013       .  S
O344        C345   1.271       .  A
C345        O346   1.265       .  A
C345       C1349   1.482       .  S
O346       Cr351   1.973       .  S
O347       Cr351   1.988       .  S
O347        C348   1.256       .  A
C348       C1396   1.476       .  S
Cr349       O352   1.766       .  S
Cr350       O352   1.770       .  S
Cr351       O352   1.764       .  S
O353       Cr371   1.933       .  S
O353        C361   1.254       .  A
O354       Cr371   2.000       .  S
O354        C355   1.265       .  A
C355        O356   1.269       .  A
C355       C1309   1.479       .  S
O356       Cr372   2.005   1_554  S
O357       Cr372   2.048       .  S
O357        C358   1.271   1_556  A
C358        O359   1.252       .  A
C358       C1329   1.496       .  S
O359       Cr373   1.966       .  S
O360       Cr373   2.020       .  S
O360        C361   1.271       .  A
C361       C1276   1.468       .  S
O362       Cr371   2.007       .  S
O362        C370   1.262   1_554  A
O363       Cr371   1.956   1_556  S
O363        C364   1.257       .  A
C364        O365   1.274       .  A
C364       C1696   1.483       .  S
O365       Cr372   2.036       .  S
O366       Cr372   1.953       .  S
O366        C367   1.260       .  A
C367        O368   1.270       .  A
C367       C1249   1.465       .  S
O368       Cr373   2.018   1_556  S
O369       Cr373   1.969   1_556  S
O369        C370   1.253       .  A
C370       C1289   1.489       .  S
Cr371       O374   1.765       .  S
Cr372       O374   1.776   1_556  S
Cr373       O374   1.769       .  S
O375       Cr393   2.034   1_556  S
O375        C383   1.274       .  A
O376       Cr393   1.951   1_556  S
O376        C377   1.249   1_556  A
C377        O378   1.275       .  A
C377       C1336   1.510       .  S
O378       Cr394   2.070       .  S
O379       Cr394   2.002   1_556  S
O379        C380   1.270       .  A
C380        O381   1.266       .  A
C380       C1229   1.479       .  S
O381       Cr395   1.999   1_556  S
O382       Cr395   1.939   1_556  S
O382        C383   1.256       .  A
C383       C1189   1.477       .  S
O384       Cr393   1.961       .  S
O384        C392   1.250       .  A
O385       Cr393   2.038       .  S
O385        C386   1.274       .  A
C386        O387   1.256       .  A
C386       C1176   1.489       .  S
O387       Cr394   1.947       .  S
O388       Cr394   2.038       .  S
O388        C389   1.275       .  A
C389        O390   1.258       .  A
C389       C1389   1.476       .  S
O390       Cr395   1.956       .  S
O391       Cr395   2.015       .  S
O391        C392   1.264       .  A
C392       C1216   1.488       .  S
Cr393       O396   1.763       .  S
Cr394       O396   1.778       .  S
Cr395       O396   1.765       .  S
O397       Cr415   1.965       .  S
O397        C405   1.261       .  A
O398       Cr415   1.982       .  S
O398        C399   1.259       .  A
C399        O400   1.268       .  A
C399       C1156   1.480       .  S
O400       Cr416   2.017       .  S
O401       Cr416   1.996       .  S
O401        C402   1.264       .  A
C402        O403   1.263       .  A
C402       C1116   1.485       .  S
O403       Cr417   1.982       .  S
O404       Cr417   2.009       .  S
O404        C405   1.269       .  A
C405       C1749   1.471       .  S
O406       Cr415   1.999       .  S
O406        C414   1.259       .  A
O407       Cr415   1.976       .  S
O407        C408   1.265       .  A
C408        O409   1.264       .  A
C408       C1729   1.469       .  S
O409       Cr416   1.984       .  S
O410       Cr416   1.995       .  S
O410        C411   1.265       .  A
C411        O412   1.262       .  A
C411       C1136   1.492       .  S
O412       Cr417   1.991       .  S
O413       Cr417   1.992       .  S
O413        C414   1.258       .  A
C414       C1609   1.485       .  S
Cr415       O418   1.770       .  S
Cr416       O418   1.768       .  S
Cr417       O418   1.768       .  S
O419       Cr437   1.992       .  S
O419        C427   1.265       .  A
O420       Cr437   1.982       .  S
O420        C421   1.260       .  A
C421        O422   1.268       .  A
C421       C1316   1.487       .  S
O422       Cr438   2.017       .  S
O423       Cr438   2.019       .  S
O423        C424   1.269       .  A
C424        O425   1.258       .  A
C424       C1149   1.479       .  S
O425       Cr439   1.981       .  S
O426       Cr439   1.975       .  S
O426        C427   1.263       .  A
C427       C1649   1.465       .  S
O428       Cr437   1.992       .  S
O428        C436   1.260       .  A
O429       Cr437   1.992       .  S
O429        C430   1.263       .  A
C430        O431   1.265       .  A
C430       C1089   1.489       .  S
O431       Cr438   2.000       .  S
O432       Cr438   1.999       .  S
O432        C433   1.267       .  A
C433        O434   1.263       .  A
C433       C1669   1.476       .  S
O434       Cr439   1.968       .  S
O435       Cr439   1.990       .  S
O435        C436   1.259       .  A
C436       C1529   1.478       .  S
Cr437       O440   1.768       .  S
Cr438       O440   1.771       .  S
Cr439       O440   1.772       .  S
O441       Cr459   2.020       .  S
O441        C449   1.271       .  A
O442       Cr459   1.956   1_455  S
O442        C443   1.251       .  A
C443        O444   1.271       .  A
C443       C1069   1.501       .  S
O444       Cr460   2.048       .  S
O445       Cr460   1.987       .  S
O445        C446   1.265       .  A
C446        O447   1.266       .  A
C446       C1109   1.467       .  S
O447       Cr461   1.998       .  S
O448       Cr461   1.945       .  S
O448        C449   1.256   1_455  A
C449       C1036   1.465       .  S
O450       Cr459   1.965       .  S
O450        C458   1.253       .  A
O451       Cr459   2.019       .  S
O451        C452   1.269   1_655  A
C452        O453   1.254       .  A
C452       C1009   1.475       .  S
O453       Cr460   1.941       .  S
O454       Cr460   2.024       .  S
O454        C455   1.271       .  A
C455        O456   1.259       .  A
C455       C1776   1.469       .  S
O456       Cr461   1.963       .  S
O457       Cr461   2.012   1_655  S
O457        C458   1.263       .  A
C458       C1049   1.478       .  S
Cr459       O462   1.765   1_655  S
Cr460       O462   1.776       .  S
Cr461       O462   1.769       .  S
O463       Cr481   2.009       .  S
O463        C471   1.270       .  A
O464       Cr481   1.973       .  S
O464        C465   1.258       .  A
C465        O466   1.266       .  A
C465        C996   1.484       .  S
O466       Cr482   2.014       .  S
O467       Cr482   2.030       .  S
O467        C468   1.272       .  A
C468        O469   1.260       .  A
C468       C1076   1.499       .  S
O469       Cr483   1.980       .  S
O470       Cr483   1.962   1_455  S
O470        C471   1.263   1_455  A
C471        C956   1.468   1_655  S
O472       Cr481   1.997       .  S
O472        C480   1.254   1_655  A
O473       Cr481   2.005       .  S
O473        C474   1.267       .  A
C474        O475   1.264       .  A
C474       C1456   1.488       .  S
O475       Cr482   1.994       .  S
O476       Cr482   1.991       .  S
O476        C477   1.265       .  A
C477        O478   1.266       .  A
C477        C929   1.472       .  S
O478       Cr483   1.983       .  S
O479       Cr483   1.985   1_455  S
O479        C480   1.260       .  A
C480        C969   1.488       .  S
Cr481       O484   1.769       .  S
Cr482       O484   1.773       .  S
Cr483       O484   1.765       .  S
O485       Cr503   1.950       .  S
O485        C493   1.257       .  A
O486       Cr503   2.004       .  S
O486        C487   1.267       .  A
C487        O488   1.265       .  A
C487        C989   1.475       .  S
O488       Cr504   1.989       .  S
O489       Cr504   2.038       .  S
O489        C490   1.270       .  A
C490        O491   1.252       .  A
C490        C909   1.481       .  S
O491       Cr505   1.960       .  S
O492       Cr505   2.013       .  S
O492        C493   1.268       .  A
C493       C1409   1.463       .  S
O494       Cr503   2.010       .  S
O494        C502   1.264       .  A
O495       Cr503   1.969       .  S
O495        C496   1.260       .  A
C496        O497   1.270       .  A
C496        C889   1.487       .  S
O497       Cr504   2.020       .  S
O498       Cr504   1.951       .  S
O498        C499   1.257       .  A
C499        O500   1.270       .  A
C499       C1436   1.475       .  S
O500       Cr505   2.022       .  S
O501       Cr505   1.966       .  S
O501        C502   1.255       .  A
C502       C1596   1.486       .  S
Cr503       O506   1.766       .  S
Cr504       O506   1.775       .  S
Cr505       O506   1.769       .  S
O507       Cr525   1.972       .  S
O507        C515   1.264       .  A
O508       Cr525   1.978       .  S
O508        C509   1.257       .  A
C509        O510   1.269       .  A
C509        C916   1.480       .  S
O510       Cr526   2.020       .  S
O511       Cr526   2.017       .  S
O511        C512   1.268       .  A
C512        O513   1.260       .  A
C512       C1236   1.496       .  S
O513       Cr527   1.976       .  S
O514       Cr527   2.005       .  S
O514        C515   1.269       .  A
C515       C1356   1.472       .  S
O516       Cr525   1.995       .  S
O516        C524   1.257       .  A
O517       Cr525   1.981       .  S
O517        C518   1.268       .  A
C518        O519   1.268       .  A
C518       C1376   1.476       .  S
O519       Cr526   2.004       .  S
O520       Cr526   1.989       .  S
O520        C521   1.263       .  A
C521        O522   1.265       .  A
C521        C869   1.480       .  S
O522       Cr527   1.992       .  S
O523       Cr527   1.987       .  S
O523        C524   1.257       .  A
C524       C1516   1.482       .  S
Cr525       O528   1.768       .  S
Cr526       O528   1.771       .  S
Cr527       O528   1.766       .  S
O529       Cr547   2.004       .  S
O529        C537   1.269       .  A
O530       Cr547   1.974       .  S
O530        C531   1.260       .  A
C531        O532   1.270   1_556  A
C531        C829   1.492       .  S
O532       Cr548   2.027       .  S
O533       Cr548   2.019       .  S
O533        C534   1.269       .  A
C534        O535   1.258       .  A
C534        C856   1.480       .  S
O535       Cr549   1.979       .  S
O536       Cr549   1.972   1_556  S
O536        C537   1.264       .  A
C537       C1016   1.476       .  S
O538       Cr547   1.993   1_554  S
O538        C546   1.258   1_655  A
O539       Cr547   1.988   1_554  S
O539        C540   1.263       .  A
C540        O541   1.262       .  A
C540       C2116   1.479       .  S
O541       Cr548   1.986       .  S
O542       Cr548   2.009       .  S
O542        C543   1.270       .  A
C543        O544   1.265       .  A
C543       C1029   1.483       .  S
O544       Cr549   1.974       .  S
O545       Cr549   1.992   1_455  S
O545        C546   1.257       .  A
C546       C1129   1.487       .  S
Cr547       O550   1.765   1_556  S
Cr548       O550   1.772       .  S
Cr549       O550   1.769       .  S
O551       Cr569   1.969   1_554  S
O551        C559   1.262       .  A
O552       Cr569   1.994       .  S
O552        C553   1.262   1_656  A
C553        O554   1.267       .  A
C553        C849   1.478       .  S
O554       Cr570   2.008   1_554  S
O555       Cr570   2.014   1_554  S
O555        C556   1.268       .  A
C556        O557   1.259       .  A
C556        C809   1.481       .  S
O557       Cr571   1.971       .  S
O558       Cr571   2.003   1_655  S
O558        C559   1.267       .  A
C559        C936   1.470       .  S
O560       Cr569   2.006   1_554  S
O560        C568   1.261   1_554  A
O561       Cr569   1.974       .  S
O561        C562   1.264   1_655  A
C562        O563   1.266       .  A
C562        C949   1.475       .  S
O563       Cr570   1.994       .  S
O564       Cr570   1.989       .  S
O564        C565   1.261       .  A
C565        O566   1.263   1_556  A
C565       C2356   1.479       .  S
O566       Cr571   2.001       .  S
O567       Cr571   1.984   1_656  S
O567        C568   1.257       .  A
C568        C896   1.468       .  S
Cr569       O572   1.767   1_656  S
Cr570       O572   1.766   1_556  S
Cr571       O572   1.764       .  S
O573       Cr591   1.941       .  S
O573        C581   1.257       .  A
O574       Cr591   1.998       .  S
O574        C575   1.264       .  A
C575        O576   1.268       .  A
C575        C836   1.481       .  S
O576       Cr592   2.006       .  S
O577       Cr592   2.055       .  S
O577        C578   1.273       .  A
C578        O579   1.252       .  A
C578        C789   1.504       .  S
O579       Cr593   1.960       .  S
O580       Cr593   2.025       .  S
O580        C581   1.273       .  A
C581       C2156   1.472       .  S
O582       Cr591   2.004       .  S
O582        C590   1.260       .  A
O583       Cr591   1.965       .  S
O583        C584   1.260       .  A
C584        O585   1.275       .  A
C584       C1056   1.489       .  S
O585       Cr592   2.033       .  S
O586       Cr592   1.950       .  S
O586        C587   1.258       .  A
C587        O588   1.271       .  A
C587       C2136   1.479       .  S
O588       Cr593   2.026       .  S
O589       Cr593   1.970       .  S
O589        C590   1.254       .  A
C590       C2496   1.481       .  S
Cr591       O594   1.772       .  S
Cr592       O594   1.774       .  S
Cr593       O594   1.771       .  S
O595       Cr613   1.971       .  S
O595        C603   1.264       .  A
O596       Cr613   1.980       .  S
O596        C597   1.256       .  A
C597        O598   1.271       .  A
C597        C796   1.502       .  S
O598       Cr614   2.039       .  S
O599       Cr614   2.027       .  S
O599        C600   1.272       .  A
C600        O601   1.261       .  A
C600        C769   1.498       .  S
O601       Cr615   1.973       .  S
O602       Cr615   2.005       .  S
O602        C603   1.268       .  A
C603       C2036   1.481       .  S
O604       Cr613   1.990       .  S
O604        C612   1.258       .  A
O605       Cr613   1.964       .  S
O605        C606   1.264       .  A
C606        O607   1.274       .  A
C606       C2016   1.483       .  S
O607       Cr614   2.021       .  S
O608       Cr614   2.002       .  S
O608        C609   1.266       .  A
C609        O610   1.261       .  A
C609       C1296   1.490       .  S
O610       Cr615   1.981       .  S
O611       Cr615   1.999       .  S
O611        C612   1.259       .  A
C612       C1976   1.490       .  S
Cr613       O616   1.767       .  S
Cr614       O616   1.772       .  S
Cr615       O616   1.767       .  S
O617       Cr635   2.006       .  S
O617        C625   1.270       .  A
O618       Cr635   1.980       .  S
O618        C619   1.261       .  A
C619        O620   1.265       .  A
C619        C729   1.493       .  S
O620       Cr636   2.007       .  S
O621       Cr636   2.025       .  S
O621        C622   1.272       .  A
C622        O623   1.258       .  A
C622        C749   1.483       .  S
O623       Cr637   1.977       .  S
O624       Cr637   1.986       .  S
O624        C625   1.267       .  A
C625       C1169   1.486       .  S
O626       Cr635   1.993       .  S
O626        C634   1.257       .  A
O627       Cr635   1.986       .  S
O627        C628   1.263       .  A
C628        O629   1.266       .  A
C628       C2256   1.480       .  S
O629       Cr636   1.995       .  S
O630       Cr636   1.991       .  S
O630        C631   1.264       .  A
C631        O632   1.270       .  A
C631       C1196   1.482       .  S
O632       Cr637   2.000       .  S
O633       Cr637   1.989       .  S
O633        C634   1.255       .  A
C634        C876   1.485       .  S
Cr635       O638   1.768       .  S
Cr636       O638   1.773       .  S
Cr637       O638   1.772       .  S
O639       Cr657   1.971       .  S
O639        C647   1.261       .  A
O640       Cr657   1.986       .  S
O640        C641   1.262       .  A
C641        O642   1.269       .  A
C641        C756   1.482       .  S
O642       Cr658   2.014       .  S
O643       Cr658   2.017       .  S
O643        C644   1.267       .  A
C644        O645   1.260       .  A
C644        C776   1.491       .  S
O645       Cr659   1.978       .  S
O646       Cr659   2.001       .  S
O646        C647   1.268       .  A
C647       C1256   1.478       .  S
O648       Cr657   2.008       .  S
O648        C656   1.262       .  A
O649       Cr657   1.985       .  S
O649        C650   1.266       .  A
C650        O651   1.265       .  A
C650       C1269   1.472       .  S
O651       Cr658   1.992       .  S
O652       Cr658   1.981       .  S
O652        C653   1.262       .  A
C653        O654   1.263       .  A
C653       C2056   1.473       .  S
O654       Cr659   1.990       .  S
O655       Cr659   1.987       .  S
O655        C656   1.257       .  A
C656       C1096   1.492       .  S
Cr657       O660   1.770       .  S
Cr658       O660   1.767       .  S
Cr659       O660   1.766       .  S
O661       Cr679   1.962       .  S
O661        C669   1.260       .  A
O662       Cr679   1.983       .  S
O662        C663   1.260       .  A
C663        O664   1.271       .  A
C663        C716   1.481       .  S
O664       Cr680   2.021       .  S
O665       Cr680   2.008       .  S
O665        C666   1.265       .  A
C666        O667   1.260       .  A
C666        C816   1.493       .  S
O667       Cr681   1.976       .  S
O668       Cr681   2.004       .  S
O668        C669   1.269       .  A
C669       C2316   1.474       .  S
O670       Cr679   1.997       .  S
O670        C678   1.259       .  A
O671       Cr679   1.973       .  S
O671        C672   1.264       .  A
C672        O673   1.264       .  A
C672       C2329   1.467       .  S
O673       Cr680   1.991       .  S
O674       Cr680   1.994       .  S
O674        C675   1.264       .  A
C675        O676   1.264       .  A
C675        C976   1.487       .  S
O676       Cr681   1.993       .  S
O677       Cr681   1.984       .  S
O677        C678   1.257       .  A
C678       C2596   1.487       .  S
Cr679       O682   1.769       .  S
Cr680       O682   1.769       .  S
Cr681       O682   1.769       .  S
O683       Cr701   2.002       .  S
O683        C691   1.269       .  A
O684       Cr701   1.978       .  S
O684        C685   1.261       .  A
C685        O686   1.269       .  A
C685        C736   1.493       .  S
O686       Cr702   2.018       .  S
O687       Cr702   2.035       .  S
O687        C688   1.272       .  A
C688        O689   1.253       .  A
C688        C709   1.484       .  S
O689       Cr703   1.970       .  S
O690       Cr703   1.975       .  S
O690        C691   1.265       .  A
C691       C2216   1.470       .  S
O692       Cr701   1.996       .  S
O692        C700   1.257       .  A
O693       Cr701   1.982       .  S
O693        C694   1.262       .  A
C694        O695   1.264       .  A
C694       C1209   1.479       .  S
O695       Cr702   1.994       .  S
O696       Cr702   2.006       .  S
O696        C697   1.270       .  A
C697        O698   1.268       .  A
C697       C2229   1.477       .  S
O698       Cr703   1.976       .  S
O699       Cr703   1.982       .  S
O699        C700   1.254       .  A
C700       C1896   1.481       .  S
Cr701       O704   1.770       .  S
Cr702       O704   1.775       .  S
Cr703       O704   1.767       .  S
C705        C706   1.402       .  A
C705        C710   1.397       .  A
C705        F723   1.358       .  S
C706        C711   1.492       .  S
C706        C707   1.411       .  A
C707        C708   1.411       .  A
C707        F712   1.357       .  S
C708        C709   1.407       .  A
C708        F724   1.357       .  S
C709        C710   1.411       .  A
C710        F713   1.356       .  S
C711        C714   1.411       .  A
C711        C718   1.403       .  A
C714        C715   1.411       .  A
C714        F719   1.357       .  S
C715        C716   1.406       .  A
C715        F721   1.357       .  S
C716        C717   1.409       .  A
C717        C718   1.398       .  A
C717        F720   1.359       .  S
C718        F722   1.358       .  S
C725        C726   1.409       .  A
C725        C730   1.402       .  A
C725        F743   1.358       .  S
C726        C731   1.494       .  S
C726        C727   1.405       .  A
C727        C728   1.404       .  A
C727        F732   1.358       .  S
C728        C729   1.415       .  A
C728        F744   1.358       .  S
C729        C730   1.408       .  A
C730        F733   1.358       .  S
C731        C734   1.406       .  A
C731        C738   1.408       .  A
C734        C735   1.402       .  A
C734        F739   1.358       .  S
C735        C736   1.411       .  A
C735        F741   1.358       .  S
C736        C737   1.411       .  A
C737        C738   1.404       .  A
C737        F740   1.358       .  S
C738        F742   1.358       .  S
C745        C746   1.409       .  A
C745        C750   1.409       .  A
C745        F763   1.357       .  S
C746        C751   1.483   1_545  S
C746        C747   1.399       .  A
C747        C748   1.397       .  A
C747        F752   1.358       .  S
C748        C749   1.412       .  A
C748        F764   1.357       .  S
C749        C750   1.406       .  A
C750        F753   1.357       .  S
C751        C754   1.399       .  A
C751        C758   1.410       .  A
C754        C755   1.396       .  A
C754        F759   1.358       .  S
C755        C756   1.411       .  A
C755        F761   1.359       .  S
C756        C757   1.405       .  A
C757        C758   1.409       .  A
C757        F760   1.357       .  S
C758        F762   1.357       .  S
C765        C766   1.406       .  A
C765        C770   1.403       .  A
C765        F783   1.358       .  S
C766        C771   1.494       .  S
C766        C767   1.406       .  A
C767        C768   1.405       .  A
C767        F772   1.358       .  S
C768        C769   1.413       .  A
C768        F784   1.357       .  S
C769        C770   1.414       .  A
C770        F773   1.358       .  S
C771        C774   1.408       .  A
C771        C778   1.406       .  A
C774        C775   1.403       .  A
C774        F779   1.357       .  S
C775        C776   1.408       .  A
C775        F781   1.358       .  S
C776        C777   1.414       .  A
C777        C778   1.404       .  A
C777        F780   1.358       .  S
C778        F782   1.358       .  S
C785        C786   1.413       .  A
C785        C790   1.412       .  A
C785        F803   1.358       .  S
C786        C791   1.505       .  S
C786        C787   1.405       .  A
C787        C788   1.403       .  A
C787        F792   1.358       .  S
C788        C789   1.414       .  A
C788        F804   1.355       .  S
C789        C790   1.411       .  A
C790        F793   1.357       .  S
C791        C794   1.403       .  A
C791        C798   1.416       .  A
C794        C795   1.400       .  A
C794        F799   1.358       .  S
C795        C796   1.415       .  A
C795        F801   1.358       .  S
C796        C797   1.408       .  A
C797        C798   1.416       .  A
C797        F800   1.357       .  S
C798        F802   1.357       .  S
C805        C806   1.407       .  A
C805        C810   1.402       .  A
C805        F823   1.358       .  S
C806        C811   1.483       .  S
C806        C807   1.403       .  A
C807        C808   1.397       .  A
C807        F812   1.358       .  S
C808        C809   1.410       .  A
C808        F824   1.358       .  S
C809        C810   1.409       .  A
C810        F813   1.358       .  S
C811        C814   1.405       .  A
C811        C818   1.402       .  A
C814        C815   1.399       .  A
C814        F819   1.359       .  S
C815        C816   1.411       .  A
C815        F821   1.358       .  S
C816        C817   1.416       .  A
C817        C818   1.402       .  A
C817        F820   1.358       .  S
C818        F822   1.358       .  S
C825        C826   1.408       .  A
C825        C830   1.407       .  A
C825        F843   1.358       .  S
C826        C831   1.495       .  S
C826        C827   1.408       .  A
C827        C828   1.402       .  A
C827        F832   1.358       .  S
C828        C829   1.408       .  A
C828        F844   1.358       .  S
C829        C830   1.413       .  A
C830        F833   1.358   1_556  S
C831        C834   1.408       .  A
C831        C838   1.409       .  A
C834        C835   1.403       .  A
C834        F839   1.358       .  S
C835        C836   1.407       .  A
C835        F841   1.358       .  S
C836        C837   1.406       .  A
C837        C838   1.406       .  A
C837        F840   1.357       .  S
C838        F842   1.357       .  S
C845        C846   1.404   1_556  A
C845        C850   1.399   1_655  A
C845        F863   1.358       .  S
C846        C851   1.489       .  S
C846        C847   1.410       .  A
C847        C848   1.407   1_655  A
C847        F852   1.357       .  S
C848        C849   1.404       .  A
C848        F864   1.357       .  S
C849        C850   1.408   1_554  A
C850        F853   1.359       .  S
C851        C854   1.410       .  A
C851        C858   1.403   1_554  A
C854        C855   1.408       .  A
C854        F859   1.357       .  S
C855        C856   1.405       .  A
C855        F861   1.357       .  S
C856        C857   1.409   1_554  A
C857        C858   1.398       .  A
C857        F860   1.356       .  S
C858        F862   1.358   1_655  S
C865        C866   1.404       .  A
C865        C870   1.395       .  A
C865        F883   1.358       .  S
C866        C871   1.483       .  S
C866        C867   1.408       .  A
C867        C868   1.403       .  A
C867        F872   1.358       .  S
C868        C869   1.409       .  A
C868        F884   1.358       .  S
C869        C870   1.408       .  A
C870        F873   1.358       .  S
C871        C874   1.407       .  A
C871        C878   1.403       .  A
C874        C875   1.400       .  A
C874        F879   1.358       .  S
C875        C876   1.408       .  A
C875        F881   1.358       .  S
C876        C877   1.413       .  A
C877        C878   1.398       .  A
C877        F880   1.358       .  S
C878        F882   1.358       .  S
C885        C886   1.403       .  A
C885        C890   1.399       .  A
C885        F903   1.358       .  S
C886        C891   1.480       .  S
C886        C887   1.404       .  A
C887        C888   1.398       .  A
C887        F892   1.358       .  S
C888        C889   1.410       .  A
C888        F904   1.358       .  S
C889        C890   1.413       .  A
C890        F893   1.358       .  S
C891        C894   1.407       .  A
C891        C898   1.406       .  A
C894        C895   1.399       .  A
C894        F899   1.358       .  S
C895        C896   1.403       .  A
C895        F901   1.358       .  S
C896        C897   1.404       .  A
C897        C898   1.398       .  A
C897        F900   1.358   1_556  S
C898        F902   1.358       .  S
C905        C906   1.409       .  A
C905        C910   1.403       .  A
C905        F923   1.358       .  S
C906        C911   1.493       .  S
C906        C907   1.408       .  A
C907        C908   1.402       .  A
C907        F912   1.358       .  S
C908        C909   1.407       .  A
C908        F924   1.358       .  S
C909        C910   1.407       .  A
C910        F913   1.358       .  S
C911        C914   1.404       .  A
C911        C918   1.413       .  A
C914        C915   1.397       .  A
C914        F919   1.358       .  S
C915        C916   1.409       .  A
C915        F921   1.358       .  S
C916        C917   1.404       .  A
C917        C918   1.408       .  A
C917        F920   1.357       .  S
C918        F922   1.357       .  S
C925        C926   1.395       .  A
C925        C930   1.390       .  A
C925        F943   1.358       .  S
C926        C931   1.461       .  S
C926        C927   1.403       .  A
C927        C928   1.397       .  A
C927        F932   1.358   1_655  S
C928        C929   1.406       .  A
C928        F944   1.358   1_655  S
C929        C930   1.413       .  A
C930        F933   1.359       .  S
C931        C934   1.399       .  A
C931        C938   1.400       .  A
C934        C935   1.394       .  A
C934        F939   1.358       .  S
C935        C936   1.408       .  A
C935        F941   1.358       .  S
C936        C937   1.409       .  A
C937        C938   1.394       .  A
C937        F940   1.358       .  S
C938        F942   1.358       .  S
C945        C946   1.402   1_655  A
C945        C950   1.394       .  A
C945        F963   1.358       .  S
C946        C951   1.466       .  S
C946        C947   1.399       .  A
C947        C948   1.392       .  A
C947        F952   1.358       .  S
C948        C949   1.413       .  A
C948        F964   1.358       .  S
C949        C950   1.409   1_455  A
C950        F953   1.358       .  S
C951        C954   1.401   1_455  A
C951        C958   1.403       .  A
C954        C955   1.392       .  A
C954        F959   1.358       .  S
C955        C956   1.407   1_655  A
C955        F961   1.358       .  S
C956        C957   1.407       .  A
C957        C958   1.395       .  A
C957        F960   1.358       .  S
C958        F962   1.358       .  S
C965        C966   1.408       .  A
C965        C970   1.405       .  A
C965        F983   1.358       .  S
C966        C971   1.484       .  S
C966        C967   1.402       .  A
C967        C968   1.392       .  A
C967        F972   1.358       .  S
C968        C969   1.411       .  A
C968        F984   1.359       .  S
C969        C970   1.412       .  A
C970        F973   1.357   1_455  S
C971        C974   1.404       .  A
C971        C978   1.406       .  A
C974        C975   1.398       .  A
C974        F979   1.358       .  S
C975        C976   1.412       .  A
C975        F981   1.358       .  S
C976        C977   1.410       .  A
C977        C978   1.400       .  A
C977        F980   1.357       .  S
C978        F982   1.358       .  S
C985        C986   1.409       .  A
C985        C990   1.400       .  A
C985       F1003   1.358       .  S
C986        C991   1.490       .  S
C986        C987   1.408       .  A
C987        C988   1.404       .  A
C987        F992   1.358       .  S
C988        C989   1.406       .  A
C988       F1004   1.358       .  S
C989        C990   1.404       .  A
C990        F993   1.358       .  S
C991        C994   1.406       .  A
C991        C998   1.408       .  A
C994        C995   1.402       .  A
C994        F999   1.358       .  S
C995        C996   1.411       .  A
C995       F1001   1.358       .  S
C996        C997   1.407       .  A
C997        C998   1.401       .  A
C997       F1000   1.358       .  S
C998       F1002   1.358       .  S
C1005      C1006   1.405   1_655  A
C1005      C1010   1.399       .  A
C1005      F1023   1.358       .  S
C1006      C1011   1.472   1_455  S
C1006      C1007   1.401       .  A
C1007      C1008   1.390       .  A
C1007      F1012   1.359       .  S
C1008      C1009   1.411       .  A
C1008      F1024   1.359       .  S
C1009      C1010   1.408   1_455  A
C1010      F1013   1.358       .  S
C1011      C1014   1.404   1_655  A
C1011      C1018   1.402       .  A
C1014      C1015   1.395       .  A
C1014      F1019   1.358       .  S
C1015      C1016   1.407   1_455  A
C1015      F1021   1.356       .  S
C1016      C1017   1.411       .  A
C1017      C1018   1.395       .  A
C1017      F1020   1.358       .  S
C1018      F1022   1.358       .  S
C1025      C1026   1.400       .  A
C1025      C1030   1.396       .  A
C1025      F1043   1.358       .  S
C1026      C1031   1.473       .  S
C1026      C1027   1.403       .  A
C1027      C1028   1.397       .  A
C1027      F1032   1.358   1_655  S
C1028      C1029   1.411       .  A
C1028      F1044   1.358   1_655  S
C1029      C1030   1.413       .  A
C1030      F1033   1.358       .  S
C1031      C1034   1.404       .  A
C1031      C1038   1.403       .  A
C1034      C1035   1.398       .  A
C1034      F1039   1.358       .  S
C1035      C1036   1.404       .  A
C1035      F1041   1.357       .  S
C1036      C1037   1.406       .  A
C1037      C1038   1.395       .  A
C1037      F1040   1.358       .  S
C1038      F1042   1.358       .  S
C1045      C1046   1.402       .  A
C1045      C1050   1.397       .  A
C1045      F1063   1.358       .  S
C1046      C1051   1.474       .  S
C1046      C1047   1.403       .  A
C1047      C1048   1.400       .  A
C1047      F1052   1.357       .  S
C1048      C1049   1.408       .  A
C1048      F1064   1.358       .  S
C1049      C1050   1.409       .  A
C1050      F1053   1.359       .  S
C1051      C1054   1.400       .  A
C1051      C1058   1.401       .  A
C1054      C1055   1.399       .  A
C1054      F1059   1.358       .  S
C1055      C1056   1.415       .  A
C1055      F1061   1.358       .  S
C1056      C1057   1.411       .  A
C1057      C1058   1.400       .  A
C1057      F1060   1.357       .  S
C1058      F1062   1.358       .  S
C1065      C1066   1.399       .  A
C1065      C1070   1.399       .  A
C1065      F1083   1.358       .  S
C1066      C1071   1.491       .  S
C1066      C1067   1.410   1_655  A
C1067      C1068   1.409       .  A
C1067      F1072   1.358       .  S
C1068      C1069   1.411       .  A
C1068      F1084   1.357       .  S
C1069      C1070   1.418   1_455  A
C1070      F1073   1.358       .  S
C1071      C1074   1.397   1_655  A
C1071      C1078   1.412       .  A
C1074      C1075   1.395   1_455  A
C1074      F1079   1.358       .  S
C1075      C1076   1.418       .  A
C1075      F1081   1.358   1_655  S
C1076      C1077   1.409       .  A
C1077      C1078   1.414       .  A
C1077      F1080   1.357       .  S
C1078      F1082   1.357       .  S
C1085      C1086   1.408       .  A
C1085      C1090   1.405       .  A
C1085      F1103   1.357       .  S
C1086      C1091   1.489       .  S
C1086      C1087   1.405       .  A
C1087      C1088   1.398       .  A
C1087      F1092   1.358       .  S
C1088      C1089   1.411       .  A
C1088      F1104   1.358       .  S
C1089      C1090   1.410       .  A
C1090      F1093   1.358       .  S
C1091      C1094   1.407       .  A
C1091      C1098   1.405       .  A
C1094      C1095   1.402       .  A
C1094      F1099   1.358       .  S
C1095      C1096   1.411       .  A
C1095      F1101   1.358       .  S
C1096      C1097   1.411       .  A
C1097      C1098   1.402       .  A
C1097      F1100   1.358       .  S
C1098      F1102   1.358       .  S
C1105      C1106   1.407       .  A
C1105      C1110   1.400       .  A
C1105      F1123   1.358       .  S
C1106      C1111   1.486       .  S
C1106      C1107   1.409       .  A
C1107      C1108   1.398       .  A
C1107      F1112   1.358       .  S
C1108      C1109   1.403       .  A
C1108      F1124   1.358       .  S
C1109      C1110   1.404       .  A
C1110      F1113   1.358       .  S
C1111      C1114   1.404       .  A
C1111      C1118   1.409       .  A
C1114      C1115   1.399       .  A
C1114      F1119   1.358       .  S
C1115      C1116   1.414       .  A
C1115      F1121   1.358       .  S
C1116      C1117   1.406       .  A
C1117      C1118   1.399       .  A
C1117      F1120   1.358       .  S
C1118      F1122   1.358       .  S
C1125      C1126   1.402       .  A
C1125      C1130   1.396       .  A
C1125      F1143   1.358       .  S
C1126      C1131   1.481       .  S
C1126      C1127   1.405       .  A
C1127      C1128   1.402       .  A
C1127      F1132   1.358       .  S
C1128      C1129   1.410       .  A
C1128      F1144   1.358       .  S
C1129      C1130   1.413       .  A
C1130      F1133   1.358       .  S
C1131      C1134   1.404       .  A
C1131      C1138   1.402       .  A
C1134      C1135   1.400       .  A
C1134      F1139   1.358       .  S
C1135      C1136   1.411       .  A
C1135      F1141   1.357       .  S
C1136      C1137   1.416       .  A
C1137      C1138   1.399       .  A
C1137      F1140   1.358       .  S
C1138      F1142   1.358       .  S
C1145      C1146   1.406       .  A
C1145      C1150   1.402       .  A
C1145      F1163   1.358       .  S
C1146      C1151   1.493       .  S
C1146      C1147   1.410       .  A
C1147      C1148   1.406       .  A
C1147      F1152   1.358       .  S
C1148      C1149   1.405       .  A
C1148      F1164   1.357       .  S
C1149      C1150   1.408       .  A
C1150      F1153   1.358       .  S
C1151      C1154   1.412       .  A
C1151      C1158   1.404       .  A
C1154      C1155   1.408       .  A
C1154      F1159   1.357       .  S
C1155      C1156   1.404       .  A
C1155      F1161   1.357       .  S
C1156      C1157   1.409       .  A
C1157      C1158   1.398       .  A
C1157      F1160   1.359       .  S
C1158      F1162   1.358       .  S
C1165      C1166   1.407       .  A
C1165      C1170   1.402       .  A
C1165      F1183   1.358       .  S
C1166      C1171   1.483       .  S
C1166      C1167   1.403       .  A
C1167      C1168   1.396       .  A
C1167      F1172   1.358       .  S
C1168      C1169   1.412       .  A
C1168      F1184   1.358       .  S
C1169      C1170   1.409       .  A
C1170      F1173   1.357       .  S
C1171      C1174   1.409       .  A
C1171      C1178   1.400       .  A
C1174      C1175   1.405       .  A
C1174      F1179   1.358       .  S
C1175      C1176   1.409       .  A
C1175      F1181   1.357       .  S
C1176      C1177   1.415       .  A
C1177      C1178   1.394       .  A
C1177      F1180   1.358       .  S
C1178      F1182   1.358       .  S
C1185      C1186   1.408       .  A
C1185      C1190   1.402       .  A
C1185      F1203   1.358       .  S
C1186      C1191   1.479       .  S
C1186      C1187   1.401       .  A
C1187      C1188   1.393       .  A
C1187      F1192   1.358       .  S
C1188      C1189   1.410       .  A
C1188      F1204   1.359       .  S
C1189      C1190   1.406       .  A
C1190      F1193   1.358       .  S
C1191      C1194   1.399       .  A
C1191      C1198   1.408       .  A
C1194      C1195   1.395       .  A
C1194      F1199   1.358       .  S
C1195      C1196   1.415       .  A
C1195      F1201   1.358       .  S
C1196      C1197   1.405       .  A
C1197      C1198   1.400       .  A
C1197      F1200   1.357       .  S
C1198      F1202   1.358       .  S
C1205      C1206   1.401       .  A
C1205      C1210   1.396       .  A
C1205      F1223   1.358       .  S
C1206      C1211   1.479       .  S
C1206      C1207   1.407       .  A
C1207      C1208   1.401       .  A
C1207      F1212   1.358       .  S
C1208      C1209   1.406       .  A
C1208      F1224   1.357       .  S
C1209      C1210   1.411       .  A
C1210      F1213   1.358       .  S
C1211      C1214   1.400       .  A
C1211      C1218   1.405       .  A
C1214      C1215   1.394       .  A
C1214      F1219   1.358       .  S
C1215      C1216   1.414       .  A
C1215      F1221   1.358       .  S
C1216      C1217   1.411       .  A
C1217      C1218   1.403       .  A
C1217      F1220   1.358       .  S
C1218      F1222   1.358       .  S
C1225      C1226   1.404       .  A
C1225      C1230   1.399       .  A
C1225      F1243   1.358       .  S
C1226      C1231   1.486       .  S
C1226      C1227   1.407       .  A
C1227      C1228   1.408       .  A
C1227      F1232   1.357       .  S
C1228      C1229   1.408       .  A
C1228      F1244   1.358       .  S
C1229      C1230   1.406       .  A
C1230      F1233   1.358       .  S
C1231      C1234   1.405       .  A
C1231      C1238   1.402       .  A
C1234      C1235   1.403       .  A
C1234      F1239   1.358       .  S
C1235      C1236   1.413       .  A
C1235      F1241   1.358       .  S
C1236      C1237   1.414       .  A
C1237      C1238   1.404       .  A
C1237      F1240   1.358       .  S
C1238      F1242   1.357       .  S
C1245      C1246   1.404       .  A
C1245      C1250   1.398       .  A
C1245      F1263   1.358       .  S
C1246      C1251   1.469       .  S
C1246      C1247   1.401       .  A
C1247      C1248   1.395       .  A
C1247      F1252   1.358       .  S
C1248      C1249   1.405       .  A
C1248      F1264   1.358       .  S
C1249      C1250   1.404       .  A
C1250      F1253   1.357       .  S
C1251      C1254   1.402       .  A
C1251      C1258   1.400       .  A
C1254      C1255   1.393       .  A
C1254      F1259   1.358       .  S
C1255      C1256   1.408       .  A
C1255      F1261   1.358       .  S
C1256      C1257   1.413       .  A
C1257      C1258   1.399       .  A
C1257      F1260   1.358       .  S
C1258      F1262   1.358       .  S
C1265      C1266   1.397       .  A
C1265      C1270   1.387       .  A
C1265      F1283   1.358       .  S
C1266      C1271   1.465       .  S
C1266      C1267   1.405       .  A
C1267      C1268   1.399       .  A
C1267      F1272   1.358       .  S
C1268      C1269   1.407       .  A
C1268      F1284   1.358       .  S
C1269      C1270   1.411       .  A
C1270      F1273   1.358       .  S
C1271      C1274   1.399       .  A
C1271      C1278   1.405       .  A
C1274      C1275   1.390       .  A
C1274      F1279   1.358       .  S
C1275      C1276   1.410       .  A
C1275      F1281   1.359       .  S
C1276      C1277   1.405       .  A
C1277      C1278   1.396       .  A
C1277      F1280   1.358       .  S
C1278      F1282   1.358       .  S
C1285      C1286   1.405       .  A
C1285      C1290   1.399       .  A
C1285      F1303   1.358       .  S
C1286      C1291   1.481       .  S
C1286      C1287   1.402       .  A
C1287      C1288   1.399       .  A
C1287      F1292   1.358       .  S
C1288      C1289   1.414       .  A
C1288      F1304   1.357       .  S
C1289      C1290   1.410       .  A
C1290      F1293   1.358       .  S
C1291      C1294   1.400       .  A
C1291      C1298   1.407       .  A
C1294      C1295   1.394       .  A
C1294      F1299   1.359       .  S
C1295      C1296   1.414       .  A
C1295      F1301   1.358       .  S
C1296      C1297   1.411       .  A
C1297      C1298   1.405       .  A
C1297      F1300   1.357       .  S
C1298      F1302   1.358       .  S
C1305      C1306   1.410       .  A
C1305      C1310   1.409       .  A
C1305      F1323   1.357       .  S
C1306      C1311   1.493       .  S
C1306      C1307   1.407       .  A
C1307      C1308   1.398       .  A
C1307      F1312   1.358       .  S
C1308      C1309   1.405       .  A
C1308      F1324   1.358       .  S
C1309      C1310   1.407       .  A
C1310      F1313   1.357       .  S
C1311      C1314   1.409       .  A
C1311      C1318   1.406       .  A
C1314      C1315   1.405       .  A
C1314      F1319   1.358       .  S
C1315      C1316   1.409       .  A
C1315      F1321   1.357       .  S
C1316      C1317   1.409       .  A
C1317      C1318   1.401       .  A
C1317      F1320   1.358       .  S
C1318      F1322   1.358       .  S
C1325      C1326   1.408       .  A
C1325      C1330   1.409       .  A
C1325      F1343   1.357       .  S
C1326      C1331   1.503   1_565  S
C1326      C1327   1.410   1_554  A
C1327      C1328   1.407       .  A
C1327      F1332   1.358       .  S
C1328      C1329   1.410   1_556  A
C1328      F1344   1.358       .  S
C1329      C1330   1.412       .  A
C1330      F1333   1.358       .  S
C1331      C1334   1.413       .  A
C1331      C1338   1.401       .  A
C1334      C1335   1.416       .  A
C1334      F1339   1.357       .  S
C1335      C1336   1.412       .  A
C1335      F1341   1.357       .  S
C1336      C1337   1.420   1_554  A
C1337      C1338   1.400   1_556  A
C1337      F1340   1.358       .  S
C1338      F1342   1.358   1_554  S
C1345      C1346   1.399       .  A
C1345      C1350   1.395       .  A
C1345      F1363   1.358       .  S
C1346      C1351   1.468   1_554  S
C1346      C1347   1.401       .  A
C1347      C1348   1.397       .  A
C1347      F1352   1.358       .  S
C1348      C1349   1.412       .  A
C1348      F1364   1.358       .  S
C1349      C1350   1.413       .  A
C1350      F1353   1.358       .  S
C1351      C1354   1.401       .  A
C1351      C1358   1.402       .  A
C1354      C1355   1.397       .  A
C1354      F1359   1.358       .  S
C1355      C1356   1.409       .  A
C1355      F1361   1.358       .  S
C1356      C1357   1.406       .  A
C1357      C1358   1.395       .  A
C1357      F1360   1.358       .  S
C1358      F1362   1.358       .  S
C1365      C1366   1.406       .  A
C1365      C1370   1.396       .  A
C1365      F1383   1.358       .  S
C1366      C1371   1.477       .  S
C1366      C1367   1.404       .  A
C1367      C1368   1.396       .  A
C1367      F1372   1.358       .  S
C1368      C1369   1.408       .  A
C1368      F1384   1.358       .  S
C1369      C1370   1.406       .  A
C1370      F1373   1.358       .  S
C1371      C1374   1.404       .  A
C1371      C1378   1.405       .  A
C1374      C1375   1.399       .  A
C1374      F1379   1.358       .  S
C1375      C1376   1.411       .  A
C1375      F1381   1.358       .  S
C1376      C1377   1.406       .  A
C1377      C1378   1.393       .  A
C1377      F1380   1.358       .  S
C1378      F1382   1.358       .  S
C1385      C1386   1.400       .  A
C1385      C1390   1.396       .  A
C1385      F1403   1.358       .  S
C1386      C1391   1.473       .  S
C1386      C1387   1.405       .  A
C1387      C1388   1.400       .  A
C1387      F1392   1.358       .  S
C1388      C1389   1.407       .  A
C1388      F1404   1.358       .  S
C1389      C1390   1.410       .  A
C1390      F1393   1.358       .  S
C1391      C1394   1.400       .  A
C1391      C1398   1.405       .  A
C1394      C1395   1.394       .  A
C1394      F1399   1.358       .  S
C1395      C1396   1.409       .  A
C1395      F1401   1.358       .  S
C1396      C1397   1.408       .  A
C1397      C1398   1.402       .  A
C1397      F1400   1.358       .  S
C1398      F1402   1.358       .  S
C1405      C1406   1.404       .  A
C1405      C1410   1.398       .  A
C1405      F1423   1.358       .  S
C1406      C1411   1.468       .  S
C1406      C1407   1.402       .  A
C1407      C1408   1.393       .  A
C1407      F1412   1.358       .  S
C1408      C1409   1.404       .  A
C1408      F1424   1.358       .  S
C1409      C1410   1.404       .  A
C1410      F1413   1.358       .  S
C1411      C1414   1.404       .  A
C1411      C1418   1.397       .  A
C1414      C1415   1.396       .  A
C1414      F1419   1.358       .  S
C1415      C1416   1.407       .  A
C1415      F1421   1.358       .  S
C1416      C1417   1.417       .  A
C1417      C1418   1.393       .  A
C1417      F1420   1.358       .  S
C1418      F1422   1.358       .  S
C1425      C1426   1.405       .  A
C1425      C1430   1.400       .  A
C1425      F1443   1.358       .  S
C1426      C1431   1.478       .  S
C1426      C1427   1.402       .  A
C1427      C1428   1.394       .  A
C1427      F1432   1.358       .  S
C1428      C1429   1.411       .  A
C1428      F1444   1.358       .  S
C1429      C1430   1.408       .  A
C1430      F1433   1.357       .  S
C1431      C1434   1.402   1_554  A
C1431      C1438   1.407   1_554  A
C1434      C1435   1.393       .  A
C1434      F1439   1.358   1_556  S
C1435      C1436   1.409       .  A
C1435      F1441   1.358       .  S
C1436      C1437   1.406       .  A
C1437      C1438   1.400       .  A
C1437      F1440   1.358       .  S
C1438      F1442   1.358   1_556  S
C1445      C1446   1.402       .  A
C1445      C1450   1.403       .  A
C1445      F1463   1.358       .  S
C1446      C1451   1.483       .  S
C1446      C1447   1.403       .  A
C1447      C1448   1.402       .  A
C1447      F1452   1.357       .  S
C1448      C1449   1.411       .  A
C1448      F1464   1.357       .  S
C1449      C1450   1.417       .  A
C1450      F1453   1.358       .  S
C1451      C1454   1.403       .  A
C1451      C1458   1.405       .  A
C1454      C1455   1.399       .  A
C1454      F1459   1.358       .  S
C1455      C1456   1.409       .  A
C1455      F1461   1.358       .  S
C1456      C1457   1.412       .  A
C1457      C1458   1.406       .  A
C1457      F1460   1.357       .  S
C1458      F1462   1.358       .  S
C1465      C1466   1.408       .  A
C1465      C1470   1.399       .  A
C1465      F1483   1.358       .  S
C1466      C1471   1.494       .  S
C1466      C1467   1.410       .  A
C1467      C1468   1.407       .  A
C1467      F1472   1.358       .  S
C1468      C1469   1.406       .  A
C1468      F1484   1.357       .  S
C1469      C1470   1.403       .  A
C1470      F1473   1.354       .  S
C1471      C1474   1.404       .  A
C1471      C1478   1.414       .  A
C1474      C1475   1.394       .  A
C1474      F1479   1.358       .  S
C1475      C1476   1.409       .  A
C1475      F1481   1.359       .  S
C1476      C1477   1.404       .  A
C1477      C1478   1.410       .  A
C1477      F1480   1.357       .  S
C1478      F1482   1.357       .  S
C1485      C1486   1.406       .  A
C1485      C1490   1.406       .  A
C1485      F1503   1.358       .  S
C1486      C1491   1.493       .  S
C1486      C1487   1.406       .  A
C1487      C1488   1.402       .  A
C1487      F1492   1.358       .  S
C1488      C1489   1.412       .  A
C1488      F1504   1.358       .  S
C1489      C1490   1.413       .  A
C1490      F1493   1.357       .  S
C1491      C1494   1.408       .  A
C1491      C1498   1.406       .  A
C1494      C1495   1.403       .  A
C1494      F1499   1.358       .  S
C1495      C1496   1.409       .  A
C1495      F1501   1.358       .  S
C1496      C1497   1.414       .  A
C1497      C1498   1.404       .  A
C1497      F1500   1.358       .  S
C1498      F1502   1.358       .  S
C1505      C1506   1.405       .  A
C1505      C1510   1.399       .  A
C1505      F1523   1.358       .  S
C1506      C1511   1.477       .  S
C1506      C1507   1.404       .  A
C1507      C1508   1.394       .  A
C1507      F1512   1.358       .  S
C1508      C1509   1.408       .  A
C1508      F1524   1.359       .  S
C1509      C1510   1.407       .  A
C1510      F1513   1.358       .  S
C1511      C1514   1.405       .  A
C1511      C1518   1.402       .  A
C1514      C1515   1.398       .  A
C1514      F1519   1.358       .  S
C1515      C1516   1.408       .  A
C1515      F1521   1.357       .  S
C1516      C1517   1.412       .  A
C1517      C1518   1.397       .  A
C1517      F1520   1.358       .  S
C1518      F1522   1.358       .  S
C1525      C1526   1.409       .  A
C1525      C1530   1.403       .  A
C1525      F1543   1.358       .  S
C1526      C1531   1.484       .  S
C1526      C1527   1.404       .  A
C1527      C1528   1.393       .  A
C1527      F1532   1.358       .  S
C1528      C1529   1.408       .  A
C1528      F1544   1.358       .  S
C1529      C1530   1.406       .  A
C1530      F1533   1.358       .  S
C1531      C1534   1.403       .  A
C1531      C1538   1.409       .  A
C1534      C1535   1.395       .  A
C1534      F1539   1.358       .  S
C1535      C1536   1.410       .  A
C1535      F1541   1.358       .  S
C1536      C1537   1.406       .  A
C1537      C1538   1.401       .  A
C1537      F1540   1.358       .  S
C1538      F1542   1.358       .  S
C1545      C1546   1.402       .  A
C1545      C1550   1.394       .  A
C1545      F1563   1.358       .  S
C1546      C1551   1.488       .  S
C1546      C1547   1.412       .  A
C1547      C1548   1.410       .  A
C1547      F1552   1.357       .  S
C1548      C1549   1.404       .  A
C1548      F1564   1.357       .  S
C1549      C1550   1.411       .  A
C1550      F1553   1.359       .  S
C1551      C1554   1.403       .  A
C1551      C1558   1.407       .  A
C1554      C1555   1.398       .  A
C1554      F1559   1.358       .  S
C1555      C1556   1.414       .  A
C1555      F1561   1.357       .  S
C1556      C1557   1.410       .  A
C1557      C1558   1.406       .  A
C1557      F1560   1.357       .  S
C1558      F1562   1.357       .  S
C1565      C1566   1.408       .  A
C1565      C1570   1.407       .  A
C1565      F1583   1.358       .  S
C1566      C1571   1.490       .  S
C1566      C1567   1.408       .  A
C1567      C1568   1.398       .  A
C1567      F1572   1.358       .  S
C1568      C1569   1.404       .  A
C1568      F1584   1.358       .  S
C1569      C1570   1.408       .  A
C1570      F1573   1.358       .  S
C1571      C1574   1.404       .  A
C1571      C1578   1.409       .  A
C1574      C1575   1.399       .  A
C1574      F1579   1.358       .  S
C1575      C1576   1.411       .  A
C1575      F1581   1.358       .  S
C1576      C1577   1.410       .  A
C1577      C1578   1.406       .  A
C1577      F1580   1.358       .  S
C1578      F1582   1.358       .  S
C1585      C1586   1.403       .  A
C1585      C1590   1.394       .  A
C1585      F1603   1.358       .  S
C1586      C1591   1.479       .  S
C1586      C1587   1.406       .  A
C1587      C1588   1.402       .  A
C1587      F1592   1.358       .  S
C1588      C1589   1.408       .  A
C1588      F1604   1.358       .  S
C1589      C1590   1.409       .  A
C1590      F1593   1.358       .  S
C1591      C1594   1.404       .  A
C1591      C1598   1.403       .  A
C1594      C1595   1.399       .  A
C1594      F1599   1.358       .  S
C1595      C1596   1.410       .  A
C1595      F1601   1.358       .  S
C1596      C1597   1.412       .  A
C1597      C1598   1.398       .  A
C1597      F1600   1.358       .  S
C1598      F1602   1.358       .  S
C1605      C1606   1.405       .  A
C1605      C1610   1.402       .  A
C1605      F1623   1.358       .  S
C1606      C1611   1.482       .  S
C1606      C1607   1.404       .  A
C1607      C1608   1.400       .  A
C1607      F1612   1.358       .  S
C1608      C1609   1.410       .  A
C1608      F1624   1.358       .  S
C1609      C1610   1.410       .  A
C1610      F1613   1.358       .  S
C1611      C1614   1.405       .  A
C1611      C1618   1.405       .  A
C1614      C1615   1.401       .  A
C1614      F1619   1.358       .  S
C1615      C1616   1.409       .  A
C1615      F1621   1.358       .  S
C1616      C1617   1.409       .  A
C1617      C1618   1.399       .  A
C1617      F1620   1.358       .  S
C1618      F1622   1.358       .  S
C1625      C1626   1.406   1_556  A
C1625      C1630   1.402       .  A
C1625      F1643   1.358       .  S
C1626      C1631   1.488   1_565  S
C1626      C1627   1.406   1_655  A
C1627      C1628   1.402       .  A
C1627      F1632   1.358       .  S
C1628      C1629   1.411       .  A
C1628      F1644   1.358       .  S
C1629      C1630   1.408   1_454  A
C1630      F1633   1.358       .  S
C1631      C1634   1.410       .  A
C1631      C1638   1.399   1_655  A
C1634      C1635   1.408       .  A
C1634      F1639   1.357       .  S
C1635      C1636   1.407       .  A
C1635      F1641   1.357       .  S
C1636      C1637   1.419       .  A
C1637      C1638   1.396   1_655  A
C1637      F1640   1.359   1_655  S
C1638      F1642   1.359       .  S
C1645      C1646   1.410       .  A
C1645      C1650   1.399       .  A
C1645      F1663   1.357       .  S
C1646      C1651   1.477       .  S
C1646      C1647   1.404       .  A
C1647      C1648   1.385       .  A
C1647      F1652   1.359       .  S
C1648      C1649   1.405       .  A
C1648      F1664   1.357       .  S
C1649      C1650   1.404       .  A
C1650      F1653   1.358       .  S
C1651      C1654   1.408   1_554  A
C1651      C1658   1.409   1_554  A
C1654      C1655   1.396       .  A
C1654      F1659   1.358   1_556  S
C1655      C1656   1.402       .  A
C1655      F1661   1.358       .  S
C1656      C1657   1.399       .  A
C1657      C1658   1.389       .  A
C1657      F1660   1.358       .  S
C1658      F1662   1.358   1_556  S
C1665      C1666   1.401       .  A
C1665      C1670   1.391       .  A
C1665      F1683   1.358       .  S
C1666      C1671   1.468       .  S
C1666      C1667   1.401       .  A
C1667      C1668   1.395       .  A
C1667      F1672   1.358       .  S
C1668      C1669   1.412       .  A
C1668      F1684   1.358       .  S
C1669      C1670   1.409       .  A
C1670      F1673   1.358       .  S
C1671      C1674   1.404       .  A
C1671      C1678   1.401       .  A
C1674      C1675   1.394       .  A
C1674      F1679   1.358       .  S
C1675      C1676   1.406       .  A
C1675      F1681   1.358       .  S
C1676      C1677   1.409       .  A
C1677      C1678   1.392       .  A
C1677      F1680   1.358       .  S
C1678      F1682   1.358       .  S
C1685      C1686   1.400       .  A
C1685      C1690   1.394       .  A
C1685      F1703   1.358       .  S
C1686      C1691   1.476       .  S
C1686      C1687   1.407       .  A
C1687      C1688   1.403       .  A
C1687      F1692   1.358       .  S
C1688      C1689   1.407       .  A
C1688      F1704   1.358       .  S
C1689      C1690   1.408       .  A
C1690      F1693   1.358       .  S
C1691      C1694   1.405       .  A
C1691      C1698   1.400       .  A
C1694      C1695   1.399       .  A
C1694      F1699   1.358       .  S
C1695      C1696   1.408       .  A
C1695      F1701   1.358       .  S
C1696      C1697   1.413       .  A
C1697      C1698   1.397       .  A
C1697      F1700   1.358       .  S
C1698      F1702   1.358       .  S
C1705      C1706   1.406       .  A
C1705      C1710   1.402       .  A
C1705      F1723   1.358       .  S
C1706      C1711   1.484       .  S
C1706      C1707   1.404       .  A
C1707      C1708   1.401       .  A
C1707      F1712   1.358       .  S
C1708      C1709   1.411       .  A
C1708      F1724   1.358       .  S
C1709      C1710   1.409       .  A
C1710      F1713   1.358       .  S
C1711      C1714   1.405       .  A
C1711      C1718   1.407       .  A
C1714      C1715   1.396       .  A
C1714      F1719   1.358       .  S
C1715      C1716   1.405       .  A
C1715      F1721   1.358       .  S
C1716      C1717   1.408       .  A
C1717      C1718   1.408       .  A
C1717      F1720   1.358       .  S
C1718      F1722   1.357       .  S
C1725      C1726   1.404       .  A
C1725      C1730   1.394       .  A
C1725      F1743   1.358       .  S
C1726      C1731   1.463   1_554  S
C1726      C1727   1.398       .  A
C1727      C1728   1.388       .  A
C1727      F1732   1.359       .  S
C1728      C1729   1.412       .  A
C1728      F1744   1.359       .  S
C1729      C1730   1.406       .  A
C1730      F1733   1.358       .  S
C1731      C1734   1.401       .  A
C1731      C1738   1.401       .  A
C1734      C1735   1.391       .  A
C1734      F1739   1.358       .  S
C1735      C1736   1.408       .  A
C1735      F1741   1.356       .  S
C1736      C1737   1.410       .  A
C1737      C1738   1.392       .  A
C1737      F1740   1.358       .  S
C1738      F1742   1.358       .  S
C1745      C1746   1.402       .  A
C1745      C1750   1.394       .  A
C1745      F1763   1.358       .  S
C1746      C1751   1.463       .  S
C1746      C1747   1.398       .  A
C1747      C1748   1.396       .  A
C1747      F1752   1.358       .  S
C1748      C1749   1.410       .  A
C1748      F1764   1.358       .  S
C1749      C1750   1.406       .  A
C1750      F1753   1.358       .  S
C1751      C1754   1.399       .  A
C1751      C1758   1.398       .  A
C1754      C1755   1.393       .  A
C1754      F1759   1.358       .  S
C1755      C1756   1.411       .  A
C1755      F1761   1.358       .  S
C1756      C1757   1.413       .  A
C1757      C1758   1.395       .  A
C1757      F1760   1.358       .  S
C1758      F1762   1.358       .  S
C1765      C1766   1.402       .  A
C1765      C1770   1.396       .  A
C1765      F1783   1.358       .  S
C1766      C1771   1.476       .  S
C1766      C1767   1.404       .  A
C1767      C1768   1.399       .  A
C1767      F1772   1.358       .  S
C1768      C1769   1.409       .  A
C1768      F1784   1.358       .  S
C1769      C1770   1.412       .  A
C1770      F1773   1.358       .  S
C1771      C1774   1.406       .  A
C1771      C1778   1.403       .  A
C1774      C1775   1.401       .  A
C1774      F1779   1.358       .  S
C1775      C1776   1.405       .  A
C1775      F1781   1.357       .  S
C1776      C1777   1.405       .  A
C1777      C1778   1.395       .  A
C1777      F1780   1.358       .  S
C1778      F1782   1.358       .  S
C1785      C1786   1.407       .  A
C1785      C1790   1.399       .  A
C1785      F1803   1.358       .  S
C1786      C1791   1.483       .  S
C1786      C1787   1.406       .  A
C1787      C1788   1.401       .  A
C1787      F1792   1.357       .  S
C1788      C1789   1.404       .  A
C1788      F1804   1.358       .  S
C1789      C1790   1.404       .  A
C1790      F1793   1.358       .  S
C1791      C1794   1.402       .  A
C1791      C1798   1.406       .  A
C1794      C1795   1.401       .  A
C1794      F1799   1.358       .  S
C1795      C1796   1.413       .  A
C1795      F1801   1.358       .  S
C1796      C1797   1.410       .  A
C1797      C1798   1.400       .  A
C1797      F1800   1.358       .  S
C1798      F1802   1.358       .  S
C1805      C1806   1.408       .  A
C1805      C1810   1.405       .  A
C1805      F1823   1.358       .  S
C1806      C1811   1.488       .  S
C1806      C1807   1.406       .  A
C1807      C1808   1.400       .  A
C1807      F1812   1.358       .  S
C1808      C1809   1.406       .  A
C1808      F1824   1.358       .  S
C1809      C1810   1.405       .  A
C1810      F1813   1.356       .  S
C1811      C1814   1.411       .  A
C1811      C1818   1.402       .  A
C1814      C1815   1.408       .  A
C1814      F1819   1.357       .  S
C1815      C1816   1.405       .  A
C1815      F1821   1.357       .  S
C1816      C1817   1.412       .  A
C1817      C1818   1.396       .  A
C1817      F1820   1.359       .  S
C1818      F1822   1.358       .  S
C1825      C1826   1.400       .  A
C1825      C1830   1.399       .  A
C1825      F1843   1.358       .  S
C1826      C1831   1.469       .  S
C1826      C1827   1.399       .  A
C1827      C1828   1.394       .  A
C1827      F1832   1.358       .  S
C1828      C1829   1.412       .  A
C1828      F1844   1.358       .  S
C1829      C1830   1.414       .  A
C1830      F1833   1.358       .  S
C1831      C1834   1.403       .  A
C1831      C1838   1.399       .  A
C1834      C1835   1.400       .  A
C1834      F1839   1.358       .  S
C1835      C1836   1.410       .  A
C1835      F1841   1.358       .  S
C1836      C1837   1.410       .  A
C1837      C1838   1.393       .  A
C1837      F1840   1.358       .  S
C1838      F1842   1.358       .  S
C1845      C1846   1.404       .  A
C1845      C1850   1.393       .  A
C1845      F1863   1.358       .  S
C1846      C1851   1.479       .  S
C1846      C1847   1.410       .  A
C1847      C1848   1.399       .  A
C1847      F1852   1.358       .  S
C1848      C1849   1.403       .  A
C1848      F1864   1.358       .  S
C1849      C1850   1.406       .  A
C1850      F1853   1.359       .  S
C1851      C1854   1.404       .  A
C1851      C1858   1.406       .  A
C1854      C1855   1.393       .  A
C1854      F1859   1.358       .  S
C1855      C1856   1.411       .  A
C1855      F1861   1.358       .  S
C1856      C1857   1.410       .  A
C1857      C1858   1.398       .  A
C1857      F1860   1.358       .  S
C1858      F1862   1.358       .  S
C1865      C1866   1.405       .  A
C1865      C1870   1.397       .  A
C1865      F1883   1.358       .  S
C1866      C1871   1.466       .  S
C1866      C1867   1.397       .  A
C1867      C1868   1.391       .  A
C1867      F1872   1.358       .  S
C1868      C1869   1.412       .  A
C1868      F1884   1.358       .  S
C1869      C1870   1.405       .  A
C1870      F1873   1.358       .  S
C1871      C1874   1.400       .  A
C1871      C1878   1.404       .  A
C1874      C1875   1.390       .  A
C1874      F1879   1.358       .  S
C1875      C1876   1.406       .  A
C1875      F1881   1.358       .  S
C1876      C1877   1.406       .  A
C1877      C1878   1.398       .  A
C1877      F1880   1.357       .  S
C1878      F1882   1.358       .  S
C1885      C1886   1.404       .  A
C1885      C1890   1.397       .  A
C1885      F1903   1.358       .  S
C1886      C1891   1.481       .  S
C1886      C1887   1.408       .  A
C1887      C1888   1.400       .  A
C1887      F1892   1.358       .  S
C1888      C1889   1.404       .  A
C1888      F1904   1.358       .  S
C1889      C1890   1.409       .  A
C1890      F1893   1.358       .  S
C1891      C1894   1.408       .  A
C1891      C1898   1.402       .  A
C1894      C1895   1.403       .  A
C1894      F1899   1.358       .  S
C1895      C1896   1.407       .  A
C1895      F1901   1.358       .  S
C1896      C1897   1.411       .  A
C1897      C1898   1.392       .  A
C1897      F1900   1.358       .  S
C1898      F1902   1.358       .  S
C1905      C1906   1.402       .  A
C1905      C1910   1.398       .  A
C1905      F1923   1.358       .  S
C1906      C1911   1.483       .  S
C1906      C1907   1.406       .  A
C1907      C1908   1.403       .  A
C1907      F1912   1.358       .  S
C1908      C1909   1.412       .  A
C1908      F1924   1.358       .  S
C1909      C1910   1.415       .  A
C1910      F1913   1.358       .  S
C1911      C1914   1.407       .  A
C1911      C1918   1.400       .  A
C1914      C1915   1.404       .  A
C1914      F1919   1.358       .  S
C1915      C1916   1.411       .  A
C1915      F1921   1.358       .  S
C1916      C1917   1.415       .  A
C1917      C1918   1.397       .  A
C1917      F1920   1.358       .  S
C1918      F1922   1.358       .  S
C1925      C1926   1.407       .  A
C1925      C1930   1.400       .  A
C1925      F1943   1.358       .  S
C1926      C1931   1.480       .  S
C1926      C1927   1.404       .  A
C1927      C1928   1.396       .  A
C1927      F1932   1.358       .  S
C1928      C1929   1.407       .  A
C1928      F1944   1.358       .  S
C1929      C1930   1.405       .  A
C1930      F1933   1.357       .  S
C1931      C1934   1.401       .  A
C1931      C1938   1.406       .  A
C1934      C1935   1.398       .  A
C1934      F1939   1.358       .  S
C1935      C1936   1.416       .  A
C1935      F1941   1.358       .  S
C1936      C1937   1.409       .  A
C1937      C1938   1.399       .  A
C1937      F1940   1.358       .  S
C1938      F1942   1.358       .  S
C1945      C1946   1.406       .  A
C1945      C1950   1.401       .  A
C1945      F1963   1.358       .  S
C1946      C1951   1.475       .  S
C1946      C1947   1.402       .  A
C1947      C1948   1.396       .  A
C1947      F1952   1.358       .  S
C1948      C1949   1.406       .  A
C1948      F1964   1.358       .  S
C1949      C1950   1.405       .  A
C1950      F1953   1.358       .  S
C1951      C1954   1.402       .  A
C1951      C1958   1.401       .  A
C1954      C1955   1.401       .  A
C1954      F1959   1.357       .  S
C1955      C1956   1.411       .  A
C1955      F1961   1.358       .  S
C1956      C1957   1.413       .  A
C1957      C1958   1.396       .  A
C1957      F1960   1.358       .  S
C1958      F1962   1.359       .  S
C1965      C1966   1.402       .  A
C1965      C1970   1.399       .  A
C1965      F1983   1.358       .  S
C1966      C1971   1.482       .  S
C1966      C1967   1.406       .  A
C1967      C1968   1.399       .  A
C1967      F1972   1.358       .  S
C1968      C1969   1.407       .  A
C1968      F1984   1.358       .  S
C1969      C1970   1.414       .  A
C1970      F1973   1.359   1_556  S
C1971      C1974   1.400       .  A
C1971      C1978   1.407       .  A
C1974      C1975   1.392       .  A
C1974      F1979   1.358       .  S
C1975      C1976   1.413       .  A
C1975      F1981   1.358       .  S
C1976      C1977   1.412       .  A
C1977      C1978   1.406       .  A
C1977      F1980   1.358       .  S
C1978      F1982   1.358       .  S
C1985      C1986   1.413       .  A
C1985      C1990   1.410       .  A
C1985      F2003   1.357       .  S
C1986      C1991   1.506       .  S
C1986      C1987   1.410   1_554  A
C1987      C1988   1.401       .  A
C1987      F1992   1.358       .  S
C1988      C1989   1.411   1_556  A
C1988      F2004   1.357       .  S
C1989      C1990   1.410       .  A
C1990      F1993   1.357       .  S
C1991      C1994   1.416       .  A
C1991      C1998   1.407   1_554  A
C1994      C1995   1.414       .  A
C1994      F1999   1.357       .  S
C1995      C1996   1.406       .  A
C1995      F2001   1.357       .  S
C1996      C1997   1.412   1_554  A
C1997      C1998   1.398       .  A
C1997      F2000   1.359       .  S
C1998      F2002   1.358       .  S
C2005      C2006   1.400       .  A
C2005      C2010   1.392       .  A
C2005      F2023   1.358       .  S
C2006      C2011   1.473       .  S
C2006      C2007   1.402       .  A
C2007      C2008   1.401       .  A
C2007      F2012   1.358       .  S
C2008      C2009   1.412       .  A
C2008      F2024   1.357       .  S
C2009      C2010   1.413       .  A
C2010      F2013   1.358       .  S
C2011      C2014   1.401       .  A
C2011      C2018   1.402       .  A
C2014      C2015   1.399   1_554  A
C2014      F2019   1.358       .  S
C2015      C2016   1.412       .  A
C2015      F2021   1.358       .  S
C2016      C2017   1.411       .  A
C2017      C2018   1.395   1_556  A
C2017      F2020   1.358       .  S
C2018      F2022   1.358       .  S
C2025      C2026   1.400       .  A
C2025      C2030   1.393       .  A
C2025      F2043   1.358       .  S
C2026      C2031   1.477       .  S
C2026      C2027   1.406       .  A
C2027      C2028   1.399       .  A
C2027      F2032   1.358       .  S
C2028      C2029   1.410       .  A
C2028      F2044   1.358       .  S
C2029      C2030   1.414       .  A
C2030      F2033   1.358       .  S
C2031      C2034   1.404       .  A
C2031      C2038   1.403       .  A
C2034      C2035   1.396       .  A
C2034      F2039   1.358       .  S
C2035      C2036   1.410       .  A
C2035      F2041   1.358       .  S
C2036      C2037   1.412       .  A
C2037      C2038   1.395       .  A
C2037      F2040   1.358       .  S
C2038      F2042   1.358       .  S
C2045      C2046   1.405       .  A
C2045      C2050   1.398       .  A
C2045      F2063   1.358       .  S
C2046      C2051   1.473       .  S
C2046      C2047   1.402       .  A
C2047      C2048   1.393       .  A
C2047      F2052   1.358       .  S
C2048      C2049   1.409       .  A
C2048      F2064   1.358       .  S
C2049      C2050   1.408       .  A
C2050      F2053   1.358       .  S
C2051      C2054   1.403       .  A
C2051      C2058   1.405       .  A
C2054      C2055   1.394       .  A
C2054      F2059   1.358       .  S
C2055      C2056   1.409       .  A
C2055      F2061   1.359       .  S
C2056      C2057   1.407       .  A
C2057      C2058   1.397       .  A
C2057      F2060   1.358       .  S
C2058      F2062   1.358       .  S
C2065      C2066   1.407       .  A
C2065      C2070   1.405       .  A
C2065      F2083   1.358       .  S
C2066      C2071   1.491       .  S
C2066      C2067   1.403       .  A
C2067      C2068   1.402       .  A
C2067      F2072   1.358       .  S
C2068      C2069   1.414       .  A
C2068      F2084   1.358       .  S
C2069      C2070   1.413       .  A
C2070      F2073   1.358       .  S
C2071      C2074   1.404       .  A
C2071      C2078   1.407       .  A
C2074      C2075   1.405       .  A
C2074      F2079   1.358       .  S
C2075      C2076   1.416       .  A
C2075      F2081   1.358       .  S
C2076      C2077   1.411       .  A
C2077      C2078   1.403       .  A
C2077      F2080   1.358       .  S
C2078      F2082   1.358       .  S
C2085      C2086   1.402       .  A
C2085      C2090   1.399       .  A
C2085      F2103   1.358       .  S
C2086      C2091   1.469       .  S
C2086      C2087   1.399       .  A
C2087      C2088   1.393       .  A
C2087      F2092   1.358       .  S
C2088      C2089   1.410       .  A
C2088      F2104   1.358       .  S
C2089      C2090   1.409       .  A
C2090      F2093   1.358       .  S
C2091      C2094   1.402       .  A
C2091      C2098   1.399       .  A
C2094      C2095   1.400       .  A
C2094      F2099   1.358       .  S
C2095      C2096   1.408       .  A
C2095      F2101   1.358       .  S
C2096      C2097   1.413       .  A
C2097      C2098   1.394       .  A
C2097      F2100   1.359       .  S
C2098      F2102   1.359       .  S
C2105      C2106   1.402       .  A
C2105      C2110   1.397       .  A
C2105      F2123   1.358       .  S
C2106      C2111   1.474       .  S
C2106      C2107   1.401       .  A
C2107      C2108   1.398       .  A
C2107      F2112   1.358       .  S
C2108      C2109   1.414       .  A
C2108      F2124   1.358       .  S
C2109      C2110   1.410       .  A
C2110      F2113   1.358       .  S
C2111      C2114   1.404       .  A
C2111      C2118   1.401       .  A
C2114      C2115   1.401       .  A
C2114      F2119   1.358       .  S
C2115      C2116   1.410       .  A
C2115      F2121   1.358       .  S
C2116      C2117   1.410       .  A
C2117      C2118   1.393       .  A
C2117      F2120   1.359       .  S
C2118      F2122   1.358       .  S
C2125      C2126   1.400       .  A
C2125      C2130   1.393       .  A
C2125      F2143   1.358       .  S
C2126      C2131   1.471       .  S
C2126      C2127   1.401       .  A
C2127      C2128   1.401       .  A
C2127      F2132   1.358       .  S
C2128      C2129   1.414       .  A
C2128      F2144   1.358       .  S
C2129      C2130   1.411       .  A
C2130      F2133   1.358       .  S
C2131      C2134   1.405       .  A
C2131      C2138   1.398       .  A
C2134      C2135   1.402       .  A
C2134      F2139   1.358       .  S
C2135      C2136   1.407       .  A
C2135      F2141   1.358       .  S
C2136      C2137   1.411       .  A
C2137      C2138   1.393       .  A
C2137      F2140   1.358       .  S
C2138      F2142   1.358       .  S
C2145      C2146   1.399       .  A
C2145      C2150   1.393       .  A
C2145      F2163   1.358       .  S
C2146      C2151   1.471   1_554  S
C2146      C2147   1.405       .  A
C2147      C2148   1.399       .  A
C2147      F2152   1.358       .  S
C2148      C2149   1.409       .  A
C2148      F2164   1.358       .  S
C2149      C2150   1.412       .  A
C2150      F2153   1.358       .  S
C2151      C2154   1.401       .  A
C2151      C2158   1.404       .  A
C2154      C2155   1.393       .  A
C2154      F2159   1.358       .  S
C2155      C2156   1.408       .  A
C2155      F2161   1.358       .  S
C2156      C2157   1.406       .  A
C2157      C2158   1.400       .  A
C2157      F2160   1.355       .  S
C2158      F2162   1.358       .  S
C2165      C2166   1.404       .  A
C2165      C2170   1.400       .  A
C2165      F2183   1.358       .  S
C2166      C2171   1.480       .  S
C2166      C2167   1.404       .  A
C2167      C2168   1.399       .  A
C2167      F2172   1.358       .  S
C2168      C2169   1.411       .  A
C2168      F2184   1.358       .  S
C2169      C2170   1.410       .  A
C2170      F2173   1.358       .  S
C2171      C2174   1.403       .  A
C2171      C2178   1.402       .  A
C2174      C2175   1.399       .  A
C2174      F2179   1.358       .  S
C2175      C2176   1.414       .  A
C2175      F2181   1.358       .  S
C2176      C2177   1.413       .  A
C2177      C2178   1.400       .  A
C2177      F2180   1.358       .  S
C2178      F2182   1.358       .  S
C2185      C2186   1.399       .  A
C2185      C2190   1.395       .  A
C2185      F2203   1.358       .  S
C2186      C2191   1.482       .  S
C2186      C2187   1.410       .  A
C2187      C2188   1.409       .  A
C2187      F2192   1.357       .  S
C2188      C2189   1.406       .  A
C2188      F2204   1.357       .  S
C2189      C2190   1.411       .  A
C2190      F2193   1.359       .  S
C2191      C2194   1.410       .  A
C2191      C2198   1.397       .  A
C2194      C2195   1.410       .  A
C2194      F2199   1.357       .  S
C2195      C2196   1.406       .  A
C2195      F2201   1.357       .  S
C2196      C2197   1.414       .  A
C2197      C2198   1.394       .  A
C2197      F2200   1.358       .  S
C2198      F2202   1.358       .  S
C2205      C2206   1.400       .  A
C2205      C2210   1.392       .  A
C2205      F2223   1.358       .  S
C2206      C2211   1.470       .  S
C2206      C2207   1.405       .  A
C2207      C2208   1.396       .  A
C2207      F2212   1.358       .  S
C2208      C2209   1.407       .  A
C2208      F2224   1.358       .  S
C2209      C2210   1.411       .  A
C2210      F2213   1.358       .  S
C2211      C2214   1.403       .  A
C2211      C2218   1.403       .  A
C2214      C2215   1.394       .  A
C2214      F2219   1.358       .  S
C2215      C2216   1.408       .  A
C2215      F2221   1.358       .  S
C2216      C2217   1.407       .  A
C2217      C2218   1.394       .  A
C2217      F2220   1.356       .  S
C2218      F2222   1.358       .  S
C2225      C2226   1.403       .  A
C2225      C2230   1.398       .  A
C2225      F2243   1.358       .  S
C2226      C2231   1.477   1_554  S
C2226      C2227   1.406       .  A
C2227      C2228   1.394       .  A
C2227      F2232   1.358       .  S
C2228      C2229   1.405       .  A
C2228      F2244   1.358       .  S
C2229      C2230   1.412       .  A
C2230      F2233   1.358       .  S
C2231      C2234   1.405       .  A
C2231      C2238   1.402       .  A
C2234      C2235   1.401       .  A
C2234      F2239   1.358       .  S
C2235      C2236   1.410       .  A
C2235      F2241   1.358       .  S
C2236      C2237   1.412       .  A
C2237      C2238   1.392       .  A
C2237      F2240   1.358       .  S
C2238      F2242   1.359       .  S
C2245      C2246   1.408       .  A
C2245      C2250   1.402       .  A
C2245      F2263   1.358       .  S
C2246      C2251   1.481       .  S
C2246      C2247   1.402       .  A
C2247      C2248   1.394       .  A
C2247      F2252   1.358       .  S
C2248      C2249   1.411       .  A
C2248      F2264   1.358       .  S
C2249      C2250   1.409       .  A
C2250      F2253   1.358       .  S
C2251      C2254   1.407       .  A
C2251      C2258   1.404       .  A
C2254      C2255   1.401       .  A
C2254      F2259   1.358       .  S
C2255      C2256   1.407       .  A
C2255      F2261   1.357       .  S
C2256      C2257   1.410       .  A
C2257      C2258   1.396       .  A
C2257      F2260   1.359       .  S
C2258      F2262   1.358       .  S
C2265      C2266   1.410       .  A
C2265      C2270   1.401       .  A
C2265      F2283   1.358       .  S
C2266      C2271   1.490       .  S
C2266      C2267   1.408       .  A
C2267      C2268   1.400       .  A
C2267      F2272   1.358       .  S
C2268      C2269   1.405       .  A
C2268      F2284   1.358   1_556  S
C2269      C2270   1.402       .  A
C2270      F2273   1.358       .  S
C2271      C2274   1.407       .  A
C2271      C2278   1.406       .  A
C2274      C2275   1.397       .  A
C2274      F2279   1.358       .  S
C2275      C2276   1.411       .  A
C2275      F2281   1.358       .  S
C2276      C2277   1.412       .  A
C2277      C2278   1.403       .  A
C2277      F2280   1.358       .  S
C2278      F2282   1.358       .  S
C2285      C2286   1.408       .  A
C2285      C2290   1.403       .  A
C2285      F2303   1.358       .  S
C2286      C2291   1.489       .  S
C2286      C2287   1.406       .  A
C2287      C2288   1.399       .  A
C2287      F2292   1.358       .  S
C2288      C2289   1.409       .  A
C2288      F2304   1.358       .  S
C2289      C2290   1.409       .  A
C2290      F2293   1.358       .  S
C2291      C2294   1.405       .  A
C2291      C2298   1.409       .  A
C2294      C2295   1.398       .  A
C2294      F2299   1.358       .  S
C2295      C2296   1.410       .  A
C2295      F2301   1.358       .  S
C2296      C2297   1.408       .  A
C2297      C2298   1.403       .  A
C2297      F2300   1.358       .  S
C2298      F2302   1.358       .  S
C2305      C2306   1.403   1_556  A
C2305      C2310   1.395       .  A
C2305      F2323   1.358   1_556  S
C2306      C2311   1.466       .  S
C2306      C2307   1.398   1_554  A
C2307      C2308   1.392       .  A
C2307      F2312   1.358   1_556  S
C2308      C2309   1.414       .  A
C2308      F2324   1.358       .  S
C2309      C2310   1.409       .  A
C2310      F2313   1.358       .  S
C2311      C2314   1.401       .  A
C2311      C2318   1.400       .  A
C2314      C2315   1.393       .  A
C2314      F2319   1.358       .  S
C2315      C2316   1.408       .  A
C2315      F2321   1.358       .  S
C2316      C2317   1.411       .  A
C2317      C2318   1.395       .  A
C2317      F2320   1.358       .  S
C2318      F2322   1.358       .  S
C2325      C2326   1.403       .  A
C2325      C2330   1.395       .  A
C2325      F2343   1.358       .  S
C2326      C2331   1.463       .  S
C2326      C2327   1.399       .  A
C2327      C2328   1.389       .  A
C2327      F2332   1.358       .  S
C2328      C2329   1.410       .  A
C2328      F2344   1.358       .  S
C2329      C2330   1.405       .  A
C2330      F2333   1.358       .  S
C2331      C2334   1.401       .  A
C2331      C2338   1.400       .  A
C2334      C2335   1.393       .  A
C2334      F2339   1.358       .  S
C2335      C2336   1.407       .  A
C2335      F2341   1.355       .  S
C2336      C2337   1.412       .  A
C2337      C2338   1.391       .  A
C2337      F2340   1.358       .  S
C2338      F2342   1.359       .  S
C2345      C2346   1.400       .  A
C2345      C2350   1.397       .  A
C2345      F2363   1.358       .  S
C2346      C2351   1.479       .  S
C2346      C2347   1.405       .  A
C2347      C2348   1.403       .  A
C2347      F2352   1.358       .  S
C2348      C2349   1.410       .  A
C2348      F2364   1.358       .  S
C2349      C2350   1.414       .  A
C2350      F2353   1.358       .  S
C2351      C2354   1.404       .  A
C2351      C2358   1.403       .  A
C2354      C2355   1.401       .  A
C2354      F2359   1.358       .  S
C2355      C2356   1.408       .  A
C2355      F2361   1.358       .  S
C2356      C2357   1.408       .  A
C2357      C2358   1.399       .  A
C2357      F2360   1.358   1_556  S
C2358      F2362   1.358       .  S
C2365      C2366   1.400       .  A
C2365      C2370   1.396       .  A
C2365      F2383   1.358       .  S
C2366      C2371   1.479       .  S
C2366      C2367   1.405       .  A
C2367      C2368   1.404       .  A
C2367      F2372   1.357       .  S
C2368      C2369   1.409       .  A
C2368      F2384   1.357       .  S
C2369      C2370   1.415       .  A
C2370      F2373   1.358       .  S
C2371      C2374   1.402       .  A
C2371      C2378   1.402       .  A
C2374      C2375   1.400       .  A
C2374      F2379   1.358       .  S
C2375      C2376   1.413       .  A
C2375      F2381   1.358       .  S
C2376      C2377   1.412       .  A
C2377      C2378   1.399       .  A
C2377      F2380   1.358   1_556  S
C2378      F2382   1.358       .  S
C2385      C2386   1.403       .  A
C2385      C2390   1.401       .  A
C2385      F2403   1.358       .  S
C2386      C2391   1.494       .  S
C2386      C2387   1.410       .  A
C2387      C2388   1.411       .  A
C2387      F2392   1.357       .  S
C2388      C2389   1.407       .  A
C2388      F2404   1.357       .  S
C2389      C2390   1.409       .  A
C2390      F2393   1.354       .  S
C2391      C2394   1.411       .  A
C2391      C2398   1.404       .  A
C2394      C2395   1.410       .  A
C2394      F2399   1.357       .  S
C2395      C2396   1.405       .  A
C2395      F2401   1.357       .  S
C2396      C2397   1.411       .  A
C2397      C2398   1.400       .  A
C2397      F2400   1.359       .  S
C2398      F2402   1.358       .  S
C2405      C2406   1.405       .  A
C2405      C2410   1.397       .  A
C2405      F2423   1.358       .  S
C2406      C2411   1.492       .  S
C2406      C2407   1.410       .  A
C2407      C2408   1.405       .  A
C2407      F2412   1.358       .  S
C2408      C2409   1.409       .  A
C2408      F2424   1.358       .  S
C2409      C2410   1.413       .  A
C2410      F2413   1.358       .  S
C2411      C2414   1.405       .  A
C2411      C2418   1.410       .  A
C2414      C2415   1.399       .  A
C2414      F2419   1.358       .  S
C2415      C2416   1.412       .  A
C2415      F2421   1.358       .  S
C2416      C2417   1.409       .  A
C2417      C2418   1.403       .  A
C2417      F2420   1.358       .  S
C2418      F2422   1.358       .  S
C2425      C2426   1.408       .  A
C2425      C2430   1.399       .  A
C2425      F2443   1.358   1_655  S
C2426      C2431   1.478       .  S
C2426      C2427   1.400       .  A
C2427      C2428   1.395       .  A
C2427      F2432   1.358       .  S
C2428      C2429   1.413       .  A
C2428      F2444   1.358       .  S
C2429      C2430   1.406       .  A
C2430      F2433   1.358   1_655  S
C2431      C2434   1.407       .  A
C2431      C2438   1.401       .  A
C2434      C2435   1.403       .  A
C2434      F2439   1.358       .  S
C2435      C2436   1.408       .  A
C2435      F2441   1.357       .  S
C2436      C2437   1.412       .  A
C2437      C2438   1.392       .  A
C2437      F2440   1.359       .  S
C2438      F2442   1.359       .  S
C2445      C2446   1.404   1_655  A
C2445      C2450   1.401       .  A
C2445      F2463   1.357       .  S
C2446      C2451   1.470       .  S
C2446      C2447   1.399       .  A
C2447      C2448   1.393       .  A
C2447      F2452   1.358       .  S
C2448      C2449   1.410       .  A
C2448      F2464   1.359       .  S
C2449      C2450   1.407   1_455  A
C2450      F2453   1.358       .  S
C2451      C2454   1.401       .  A
C2451      C2458   1.399       .  A
C2454      C2455   1.394       .  A
C2454      F2459   1.358       .  S
C2455      C2456   1.410       .  A
C2455      F2461   1.358       .  S
C2456      C2457   1.415   1_455  A
C2457      C2458   1.401   1_655  A
C2457      F2460   1.358       .  S
C2458      F2462   1.358       .  S
C2465      C2466   1.405       .  A
C2465      C2470   1.404       .  A
C2465      F2483   1.358       .  S
C2466      C2471   1.494       .  S
C2466      C2467   1.407       .  A
C2467      C2468   1.407       .  A
C2467      F2472   1.358       .  S
C2468      C2469   1.413       .  A
C2468      F2484   1.358       .  S
C2469      C2470   1.412       .  A
C2470      F2473   1.358       .  S
C2471      C2474   1.406       .  A
C2471      C2478   1.405       .  A
C2474      C2475   1.408       .  A
C2474      F2479   1.357       .  S
C2475      C2476   1.415       .  A
C2475      F2481   1.357       .  S
C2476      C2477   1.414       .  A
C2477      C2478   1.402       .  A
C2477      F2480   1.358       .  S
C2478      F2482   1.358       .  S
C2485      C2486   1.400       .  A
C2485      C2490   1.397       .  A
C2485      F2503   1.358       .  S
C2486      C2491   1.473       .  S
C2486      C2487   1.401       .  A
C2487      C2488   1.397       .  A
C2487      F2492   1.358       .  S
C2488      C2489   1.412       .  A
C2488      F2504   1.358       .  S
C2489      C2490   1.414       .  A
C2490      F2493   1.357       .  S
C2491      C2494   1.401       .  A
C2491      C2498   1.403       .  A
C2494      C2495   1.396       .  A
C2494      F2499   1.358       .  S
C2495      C2496   1.410       .  A
C2495      F2501   1.358       .  S
C2496      C2497   1.410       .  A
C2497      C2498   1.400       .  A
C2497      F2500   1.358       .  S
C2498      F2502   1.358       .  S
C2505      C2506   1.401       .  A
C2505      C2510   1.400       .  A
C2505      F2523   1.358       .  S
C2506      C2511   1.485       .  S
C2506      C2507   1.405       .  A
C2507      C2508   1.405       .  A
C2507      F2512   1.358       .  S
C2508      C2509   1.414       .  A
C2508      F2524   1.358       .  S
C2509      C2510   1.415       .  A
C2510      F2513   1.358       .  S
C2511      C2514   1.406       .  A
C2511      C2518   1.402       .  A
C2514      C2515   1.406       .  A
C2514      F2519   1.358       .  S
C2515      C2516   1.411       .  A
C2515      F2521   1.358       .  S
C2516      C2517   1.412       .  A
C2517      C2518   1.399       .  A
C2517      F2520   1.358       .  S
C2518      F2522   1.358       .  S
C2525      C2526   1.406       .  A
C2525      C2530   1.397       .  A
C2525      F2543   1.358       .  S
C2526      C2531   1.487       .  S
C2526      C2527   1.410   1_655  A
C2527      C2528   1.401       .  A
C2527      F2532   1.358       .  S
C2528      C2529   1.405   1_455  A
C2528      F2544   1.358       .  S
C2529      C2530   1.406       .  A
C2530      F2533   1.358       .  S
C2531      C2534   1.410       .  A
C2531      C2538   1.402   1_655  A
C2534      C2535   1.402       .  A
C2534      F2539   1.358       .  S
C2535      C2536   1.409       .  A
C2535      F2541   1.358       .  S
C2536      C2537   1.414   1_655  A
C2537      C2538   1.396       .  A
C2537      F2540   1.358       .  S
C2538      F2542   1.358       .  S
C2545      C2546   1.405       .  A
C2545      C2550   1.399       .  A
C2545      F2563   1.358       .  S
C2546      C2551   1.493       .  S
C2546      C2547   1.410       .  A
C2547      C2548   1.405       .  A
C2547      F2552   1.357   1_655  S
C2548      C2549   1.406       .  A
C2548      F2564   1.357   1_655  S
C2549      C2550   1.412       .  A
C2550      F2553   1.359       .  S
C2551      C2554   1.407       .  A
C2551      C2558   1.406       .  A
C2554      C2555   1.402       .  A
C2554      F2559   1.358       .  S
C2555      C2556   1.412       .  A
C2555      F2561   1.357       .  S
C2556      C2557   1.413       .  A
C2557      C2558   1.404       .  A
C2557      F2560   1.357       .  S
C2558      F2562   1.358       .  S
C2565      C2566   1.405       .  A
C2565      C2570   1.403       .  A
C2565      F2583   1.358       .  S
C2566      C2571   1.490       .  S
C2566      C2567   1.407       .  A
C2567      C2568   1.402       .  A
C2567      F2572   1.358       .  S
C2568      C2569   1.409       .  A
C2568      F2584   1.358       .  S
C2569      C2570   1.413       .  A
C2570      F2573   1.358       .  S
C2571      C2574   1.406       .  A
C2571      C2578   1.405       .  A
C2574      C2575   1.400       .  A
C2574      F2579   1.358       .  S
C2575      C2576   1.411       .  A
C2575      F2581   1.358       .  S
C2576      C2577   1.414       .  A
C2577      C2578   1.404       .  A
C2577      F2580   1.358       .  S
C2578      F2582   1.358       .  S
C2585      C2586   1.403       .  A
C2585      C2590   1.400       .  A
C2585      F2603   1.358       .  S
C2586      C2591   1.481       .  S
C2586      C2587   1.402       .  A
C2587      C2588   1.399       .  A
C2587      F2592   1.358       .  S
C2588      C2589   1.413       .  A
C2588      F2604   1.357       .  S
C2589      C2590   1.414       .  A
C2590      F2593   1.358       .  S
C2591      C2594   1.405       .  A
C2591      C2598   1.403       .  A
C2594      C2595   1.401       .  A
C2594      F2599   1.358       .  S
C2595      C2596   1.411       .  A
C2595      F2601   1.358       .  S
C2596      C2597   1.412       .  A
C2597      C2598   1.397       .  A
C2597      F2600   1.358       .  S
C2598      F2602   1.358       .  S
C2605      C2606   1.413       .  A
C2605      C2610   1.409       .  A
C2605      F2623   1.357       .  S
C2606      C2611   1.488   1_565  S
C2606      C2607   1.401       .  A
C2607      C2608   1.392       .  A
C2607      F2612   1.359       .  S
C2608      C2609   1.413       .  A
C2608      F2624   1.359       .  S
C2609      C2610   1.403       .  A
C2610      F2613   1.357       .  S
C2611      C2614   1.408       .  A
C2611      C2618   1.408   1_655  A
C2614      C2615   1.399       .  A
C2614      F2619   1.358       .  S
C2615      C2616   1.402   1_655  A
C2615      F2621   1.355       .  S
C2616      C2617   1.404       .  A
C2617      C2618   1.403       .  A
C2617      F2620   1.358       .  S
C2618      F2622   1.358       .  S
