geometry optimzed in LAMMPS
_audit_creation_date              2020-12-01 
_audit_creation_method            'lammps2cif' 
_symmetry_space_group_name_H-M    'P1' 
_symmetry_Int_Tables_number       1 
_symmetry_cell_setting            triclinic 
loop_ 
_symmetry_equiv_pos_as_xyz 
  x,y,z 
_cell_length_a                    43.59825452 
_cell_length_b                    43.6160161769742 
_cell_length_c                    59.8964662485578 
_cell_angle_alpha                 89.8413306282611 
_cell_angle_beta                  90.07316423613513 
_cell_angle_gamma                 119.42123406976617 
loop_ 
_atom_site_label 
_atom_site_type_symbol 
_atom_site_fract_x 
_atom_site_fract_y 
_atom_site_fract_z 
_atom_site_charge 
Fe1        Fe  0.44020521  0.60440352  0.60462067     1.65800
Fe2        Fe  0.49998218  0.57739404  0.60090815     1.73200
Fe3        Fe  0.48171536  0.61338566  0.55609732     1.54400
O4          O  0.42857292  0.57871433  0.54890104    -0.82200
O5          O  0.54591554  0.61203403  0.58466134    -0.80500
O6          O  0.40689746  0.59396401  0.57781376    -0.84700
O7          O  0.46543920  0.65725602  0.59772941    -0.79600
O8          O  0.49289788  0.57397484  0.54577302    -0.81300
O9          O  0.51716336  0.61291100  0.62700773    -0.84100
C10         C  0.46802825  0.67022692  0.57840792     0.96700
C11         C  0.40264181  0.57666986  0.55998427     1.04100
O12         O  0.47396342  0.59814804  0.58723166    -1.13100
O13         O  0.45700263  0.54107834  0.61958550    -0.75500
O14         O  0.41309335  0.55199452  0.61235712    -0.79000
O15         O  0.47057728  0.65476315  0.56105276    -0.79700
C16         C  0.42482658  0.53329318  0.62106127     0.95600
O17         O  0.46842123  0.61547857  0.63407724    -0.77600
O18         O  0.48526623  0.54064054  0.57566096    -0.82800
C19         C  0.55555531  0.64177419  0.57553517     0.98200
C20         C  0.48817120  0.54537720  0.55464125     1.04100
O21         O  0.53459883  0.64799440  0.56387311    -0.78500
C22         C  0.49914689  0.62169854  0.63930424     1.02400
Fe23       Fe  0.87950357  0.81320427  0.58823408     1.65800
Fe24       Fe  0.80877986  0.73283792  0.58787897     1.73200
Fe25       Fe  0.82881468  0.78555084  0.63440646     1.54400
O26         O  0.88311923  0.81135383  0.64305758    -0.82200
O27         O  0.76477863  0.73534248  0.59569203    -0.80500
O28         O  0.91057690  0.80955169  0.61205458    -0.84700
O29         O  0.87965748  0.85426126  0.60530463    -0.79600
O30         O  0.82492139  0.73860438  0.64499374    -0.81300
O31         O  0.81079537  0.75896779  0.55824271    -0.84100
C32         C  0.86075899  0.85963906  0.61906752     0.96700
C33         C  0.91087292  0.81637000  0.63261600     1.04100
O34         O  0.83849158  0.77710343  0.60351329    -1.13100
O35         O  0.84934894  0.72498349  0.57745566    -0.75500
O36         O  0.88849911  0.77982961  0.56881913    -0.79000
O37         O  0.83315286  0.83439829  0.62747239    -0.79700
C38         C  0.87684461  0.74708444  0.56740978     0.95600
O39         O  0.84898087  0.81637886  0.56336736    -0.77600
O40         O  0.80468220  0.70247338  0.61570189    -0.82800
C41         C  0.75404130  0.74529584  0.61225510     0.98200
C42         C  0.81450652  0.70872467  0.63600627     1.04100
O43         O  0.77381568  0.76164158  0.62885375    -0.78500
C44         C  0.82595217  0.79100169  0.55184698     1.02400
Fe45       Fe  0.77946349  0.46022218  0.76202642     1.65800
Fe46       Fe  0.83663599  0.54728319  0.76733020     1.73200
Fe47       Fe  0.82626046  0.50638631  0.71815291     1.54400
O48         O  0.81192843  0.45307492  0.71607053    -0.82200
O49         O  0.82436982  0.57475044  0.74405049    -0.80500
O50         O  0.80610639  0.43493463  0.75101668    -0.84700
O51         O  0.74973020  0.44714068  0.73304796    -0.79600
O52         O  0.87752447  0.51963229  0.72801795    -0.81300
O53         O  0.79058034  0.53624471  0.78409795    -0.84100
C54         C  0.74724357  0.46786893  0.71914791     0.96700
C55         C  0.80756893  0.42969718  0.73036924     1.04100
O56         O  0.81436897  0.50469871  0.74956531    -1.13100
O57         O  0.85022835  0.52376803  0.79252250    -0.75500
O58         O  0.80476017  0.46897056  0.79225526    -0.79000
O59         O  0.77444538  0.49402836  0.71068909    -0.79700
C60         C  0.83197115  0.49366612  0.80134539     0.95600
O61         O  0.75032075  0.48188450  0.77400230    -0.77600
O62         O  0.88491408  0.56135525  0.75270785    -0.82800
C63         C  0.83179446  0.57861585  0.72342627     0.98200
C64         C  0.89634068  0.54345539  0.74229301     1.04100
O65         O  0.84142321  0.55912549  0.71350044    -0.78500
C66         C  0.75917470  0.51057273  0.78415415     1.02400
Fe67       Fe  0.20846714  0.68753843  0.75974799     1.65800
Fe68       Fe  0.14060471  0.70433158  0.76480943     1.73200
Fe69       Fe  0.16326505  0.66930585  0.80825488     1.54400
O70         O  0.17944423  0.63232297  0.80315390    -0.82200
O71         O  0.15089771  0.73843566  0.79153288    -0.80500
O72         O  0.19321139  0.63557671  0.76730578    -0.84700
O73         O  0.24327719  0.70559689  0.78593214    -0.79600
O74         O  0.11161876  0.63123189  0.79984499    -0.81300
O75         O  0.18008229  0.74480387  0.74673245    -0.84100
C76         C  0.24325162  0.71577007  0.80575638     0.96700
C77         C  0.18757195  0.62051780  0.78621092     1.04100
O78         O  0.17090903  0.68716613  0.77746394    -1.13100
O79         O  0.12834251  0.67232555  0.73688639    -0.75500
O80         O  0.17833200  0.67087309  0.73142412    -0.79000
O81         O  0.21505012  0.70698994  0.81683894    -0.79700
C82         C  0.14836053  0.66548709  0.72500024     0.95600
O83         O  0.22796921  0.73919806  0.74974460    -0.77600
O84         O  0.09617526  0.66488293  0.77983825    -0.82800
C85         C  0.14797315  0.73129653  0.81229258     0.98200
C86         C  0.08887718  0.63583982  0.78905571     1.04100
O87         O  0.14618932  0.70319042  0.81969410    -0.78500
C88         C  0.21206451  0.75487064  0.74224273     1.02400
Fe89       Fe  0.11371223  0.95449689  0.93075057     1.65800
Fe90       Fe  0.16997558  0.92163016  0.93396975     1.73200
Fe91       Fe  0.16222234  0.95773512  0.88636907     1.54400
O92         O  0.11084963  0.92055343  0.87687180    -0.82200
O93         O  0.21886202  0.95649739  0.92045528    -0.80500
O94         O  0.08179596  0.93360358  0.90301339    -0.84700
O95         O  0.13624950  0.00523787  0.91808660    -0.79600
O96         O  0.17979877  0.92241310  0.88126210    -0.81300
O97         O  0.18303218  0.95669528  0.96041190    -0.84100
C98         C  0.13808251  0.01157500  0.89739632     0.96700
C99         C  0.08240469  0.91715904  0.88555143     1.04100
O100        O  0.14836946  0.94456881  0.91740102    -1.13100
O101        O  0.12418213  0.88580024  0.95019990    -0.75500
O102        O  0.08616171  0.90541520  0.94519068    -0.79000
O103        O  0.14656114  0.99510423  0.88375432    -0.79700
C104        C  0.09407506  0.88311986  0.95294560     0.95600
O105        O  0.14313044  0.97499580  0.95946433    -0.77600
O106        O  0.15803193  0.88408798  0.90867843    -0.82800
C107        C  0.23106963  0.98658095  0.91104568     0.98200
C108        C  0.16818634  0.89149926  0.88853162     1.04100
O109        O  0.21263049  0.99410533  0.89770258    -0.78500
C110        C  0.16935223  0.97430475  0.96829983     1.02400
Fe111      Fe  0.54022632  0.17016763  0.93507877     1.65800
Fe112      Fe  0.48791103  0.08199465  0.93064564     1.73200
Fe113      Fe  0.49743296  0.12292089  0.97977928     1.54400
O114        O  0.55061165  0.13920382  0.98589506    -0.82200
O115        O  0.43909098  0.06553347  0.94533968    -0.80500
O116        O  0.57080108  0.18600032  0.96363562    -0.84700
O117        O  0.51088604  0.19236684  0.94647569    -0.79600
O118        O  0.48596090  0.07132180  0.98491361    -0.81300
O119        O  0.47164771  0.10299339  0.90537122    -0.84100
C120        C  0.50974185  0.19765576  0.96716511     0.96700
C121        C  0.57608971  0.16654332  0.97706694     1.04100
O122        O  0.50799203  0.12489166  0.94808463    -1.13100
O123        O  0.53469106  0.09559844  0.91384933    -0.75500
O124        O  0.57191602  0.15149334  0.92287683    -0.79000
O125        O  0.50775025  0.17517801  0.98150126    -0.79700
C126        C  0.56514365  0.12280936  0.91339560     0.95600
O127        O  0.51383960  0.15929904  0.90514655    -0.77600
O128        O  0.50276988  0.05660138  0.95392618    -0.82800
C129        C  0.42626707  0.08062721  0.95741337     0.98200
C130        C  0.49553115  0.05218308  0.97455960     1.04100
O131        O  0.44469780  0.10512041  0.97141160    -0.78500
C132        C  0.48740982  0.13322469  0.89641369     1.02400
Fe133      Fe  0.09901482  0.12461409  0.42640983     1.65800
Fe134      Fe  0.15838793  0.21052153  0.43345298     1.73200
Fe135      Fe  0.15027053  0.17069378  0.38372176     1.54400
O136        O  0.13718851  0.11767494  0.38263002    -0.82200
O137        O  0.15085791  0.24083924  0.40990276    -0.80500
O138        O  0.12586913  0.09840598  0.41756002    -0.84700
O139        O  0.07257623  0.11082968  0.39650819    -0.79600
O140        O  0.20147350  0.18520691  0.39414067    -0.81300
O141        O  0.11136610  0.20050641  0.44808727    -0.84100
C142        C  0.07149514  0.12983312  0.38084682     0.96700
C143        C  0.13064655  0.09395492  0.39719256     1.04100
O144        O  0.13625042  0.16877324  0.41479857    -1.13100
O145        O  0.16783437  0.18497196  0.45939915    -0.75500
O146        O  0.11967355  0.13241643  0.45790726    -0.79000
O147        O  0.09899975  0.15718430  0.37391849    -0.79700
C148        C  0.14633486  0.15571162  0.46815953     0.95600
O149        O  0.06974913  0.14795140  0.43594866    -0.77600
O150        O  0.20745258  0.22340418  0.42114988    -0.82800
C151        C  0.15854216  0.24469455  0.38931938     0.98200
C152        C  0.21986639  0.20826750  0.40886363     1.04100
O153        O  0.16464084  0.22306825  0.37881125    -0.78500
C154        C  0.07936994  0.17626368  0.44685626     1.02400
Fe155      Fe  0.52774955  0.33149162  0.42351955     1.65800
Fe156      Fe  0.47614707  0.36979347  0.41975750     1.73200
Fe157      Fe  0.48996214  0.34135385  0.46922203     1.54400
O158        O  0.50389218  0.30252246  0.47314930    -0.82200
O159        O  0.48881306  0.41013954  0.44287397    -0.80500
O160        O  0.50344200  0.28315199  0.43937538    -0.84700
O161        O  0.56436526  0.35474316  0.44899877    -0.79600
O162        O  0.43745915  0.30518034  0.46231350    -0.81300
O163        O  0.52212103  0.40348938  0.40274595    -0.84100
C164        C  0.56863418  0.37768339  0.46367334     0.96700
C165        C  0.50644847  0.28112180  0.46018107     1.04100
O166        O  0.49788891  0.34763367  0.43710485    -1.13100
O167        O  0.46107540  0.33350167  0.39403757    -0.75500
O168        O  0.49444448  0.30790449  0.39699644    -0.79000
O169        O  0.54296638  0.37862045  0.47344100    -0.79700
C170        C  0.47070322  0.31192247  0.38742410     0.95600
O171        O  0.55514658  0.37750269  0.40591379    -0.77600
O172        O  0.42842783  0.33582529  0.43498785    -0.82800
C173        C  0.48252426  0.40724535  0.46366036     0.98200
C174        C  0.41757429  0.30933974  0.44818360     1.04100
O175        O  0.47566357  0.37933271  0.47394996    -0.78500
C176        C  0.55010822  0.40211470  0.39877829     1.02400
Fe177      Fe  0.78212534  0.28748851  0.25883174     1.65800
Fe178      Fe  0.83431422  0.25050899  0.26466811     1.73200
Fe179      Fe  0.82604715  0.28139273  0.21510737     1.54400
O180        O  0.77382465  0.24513545  0.20821359    -0.82200
O181        O  0.88290489  0.28105422  0.24953189    -0.80500
O182        O  0.75080591  0.26976910  0.23053029    -0.84700
O183        O  0.81035191  0.33775108  0.24569871    -0.79600
O184        O  0.83907106  0.24201475  0.21176210    -0.81300
O185        O  0.85070882  0.28856288  0.28892609    -0.84100
C186        C  0.81197762  0.34321092  0.22485413     0.96700
C187        C  0.74753626  0.24670018  0.21630170     1.04100
O188        O  0.81418601  0.27318581  0.24661742    -1.13100
O189        O  0.78813361  0.21949358  0.28211593    -0.75500
O190        O  0.75081746  0.23881945  0.27318410    -0.79000
O191        O  0.81460711  0.32226101  0.21137814    -0.79700
C192        C  0.75802448  0.21742020  0.28321099     0.95600
O193        O  0.81015313  0.30584071  0.28817213    -0.77600
O194        O  0.81923887  0.20951504  0.24213395    -0.82800
C195        C  0.89553096  0.30993324  0.23860455     0.98200
C196        C  0.82795314  0.21284252  0.22173226     1.04100
O197        O  0.87751345  0.31647056  0.22439454    -0.78500
C198        C  0.83650227  0.30541998  0.29692618     1.02400
Fe199      Fe  0.19568448  0.50174800  0.25930883     1.65800
Fe200      Fe  0.15070678  0.41273755  0.25871323     1.73200
Fe201      Fe  0.16053720  0.45800014  0.30680582     1.54400
O202        O  0.21444519  0.47901616  0.31194596    -0.82200
O203        O  0.10195765  0.39771029  0.27256517    -0.80500
O204        O  0.23239341  0.51997939  0.28483192    -0.84700
O205        O  0.16709255  0.52298786  0.27287926    -0.79600
O206        O  0.15289266  0.40842657  0.31421403    -0.81300
O207        O  0.13472286  0.42943069  0.23088627    -0.84100
C208        C  0.16612288  0.52885895  0.29336276     0.96700
C209        C  0.23865620  0.50464797  0.30092588     1.04100
O210        O  0.16906759  0.45725353  0.27469331    -1.13100
O211        O  0.19795518  0.42604489  0.24336069    -0.75500
O212        O  0.22623759  0.48481524  0.24314763    -0.79000
O213        O  0.16744523  0.50873266  0.30806298    -0.79700
C214        C  0.22386419  0.45554351  0.23775185     0.95600
O215        O  0.16227317  0.48794964  0.23258726    -0.77600
O216        O  0.16472191  0.38891705  0.28334825    -0.82800
C217        C  0.08900600  0.41225882  0.28504330     0.98200
C218        C  0.15978109  0.38709351  0.30419156     1.04100
O219        O  0.10702986  0.43649711  0.29929961    -0.78500
C220        C  0.14149897  0.45917033  0.22319359     1.02400
Fe221      Fe  0.86237221  0.00556158  0.08749972     1.65800
Fe222      Fe  0.80438375  0.03557367  0.08810663     1.73200
Fe223      Fe  0.82124176  0.00394732  0.13475242     1.54400
O224        O  0.83667394  0.96553271  0.13474089    -0.82200
O225        O  0.82159241  0.07512972  0.11168835    -0.80500
O226        O  0.83858626  0.95439101  0.09903988    -0.84700
O227        O  0.89656930  0.02332806  0.11440155    -0.79600
O228        O  0.76952340  0.96612641  0.12625775    -0.81300
O229        O  0.84641562  0.06887199  0.06797220    -0.84100
C230        C  0.89979171  0.04508509  0.12959027     0.96700
C231        C  0.83889605  0.94674651  0.11940304     1.04100
O232        O  0.82945319  0.01512258  0.10308836    -1.13100
O233        O  0.78602295  0.99770746  0.06336020    -0.75500
O234        O  0.83145306  0.98784067  0.05934802    -0.79000
O235        O  0.87340167  0.04277186  0.14035371    -0.79700
C236        C  0.80230378  0.98477389  0.05289126     0.95600
O237        O  0.88884600  0.05547170  0.07428281    -0.77600
O238        O  0.75961993  0.00369650  0.10640675    -0.82800
C239        C  0.81525678  0.07065441  0.13247700     0.98200
C240        C  0.74956990  0.97278610  0.11378832     1.04100
O241        O  0.80564463  0.04101823  0.14159877    -0.78500
C242        C  0.87764350  0.07442090  0.06519011     1.02400
Fe243      Fe  0.45498882  0.77723942  0.08826690     1.65800
Fe244      Fe  0.49464594  0.86554162  0.09472474     1.73200
Fe245      Fe  0.48588513  0.82973042  0.04382314     1.54400
O246        O  0.47745970  0.77993124  0.03691249    -0.82200
O247        O  0.47828335  0.89199745  0.07321378    -0.80500
O248        O  0.48227693  0.75931351  0.06920159    -0.84700
O249        O  0.41516345  0.76356050  0.06469265    -0.79600
O250        O  0.53928629  0.84973852  0.05051157    -0.81300
O251        O  0.44679230  0.84685360  0.11094848    -0.84100
C252        C  0.40806270  0.78132181  0.05056114     0.96700
C253        C  0.47884878  0.75641066  0.04833775     1.04100
O254        O  0.47831382  0.82422064  0.07591952    -1.13100
O255        O  0.51285240  0.84574752  0.11955142    -0.75500
O256        O  0.49290962  0.78892075  0.11229302    -0.79000
O257        O  0.43162990  0.80915384  0.04066822    -0.79700
C258        C  0.51157316  0.81660353  0.12350328     0.95600
O259        O  0.42499145  0.78873186  0.10943968    -0.77600
O260        O  0.54377119  0.88485111  0.07965287    -0.82800
C261        C  0.48660901  0.89917122  0.05292971     0.98200
C262        C  0.55715419  0.87256037  0.06560007     1.04100
O263        O  0.49527045  0.88059389  0.04135457    -0.78500
C264        C  0.42351062  0.81561416  0.11602993     1.02400
Fe265      Fe  0.63479275  0.16557022  0.42824976     1.65800
Fe266      Fe  0.59364445  0.07626007  0.42345078     1.73200
Fe267      Fe  0.62585034  0.11579267  0.47281013     1.54400
O268        O  0.66698019  0.16696785  0.47648893    -0.82200
O269        O  0.55393447  0.05072226  0.44701374    -0.80500
O270        O  0.68431776  0.18682173  0.44251258    -0.84700
O271        O  0.61506131  0.18021260  0.45525465    -0.79600
O272        O  0.65980176  0.09679880  0.46405618    -0.81300
O273        O  0.56101901  0.09166208  0.40767864    -0.84100
C274        C  0.59214587  0.16160644  0.46988574     0.96700
C275        C  0.68825301  0.19065045  0.46339050     1.04100
O276        O  0.61817007  0.11913498  0.44108440    -1.13100
O277        O  0.62950135  0.09624157  0.39740492    -0.75500
O278        O  0.65518026  0.15477422  0.40034277    -0.79000
O279        O  0.59048484  0.13406964  0.47873804    -0.79700
C280        C  0.65078597  0.12711933  0.39061062     0.95600
O281        O  0.58757625  0.14988787  0.41238992    -0.77600
O282        O  0.62578523  0.05857803  0.43743812    -0.82800
C283        C  0.55726517  0.04611939  0.46756945     0.98200
C284        C  0.65357998  0.07279445  0.44952588     1.04100
O285        O  0.58603358  0.06481166  0.47755329    -0.78500
C286        C  0.56252179  0.12129870  0.40489294     1.02400
Fe287      Fe  0.83696871  0.94119575  0.43151379     1.65800
Fe288      Fe  0.75051382  0.91033905  0.42885704     1.73200
Fe289      Fe  0.80269910  0.95024168  0.38326441     1.54400
O290        O  0.84877365  0.99708134  0.38769576    -0.82200
O291        O  0.72199731  0.88231223  0.40077219    -0.80500
O292        O  0.87530630  0.98309603  0.41380566    -0.84700
O293        O  0.84346029  0.90889437  0.41046305    -0.79600
O294        O  0.77534219  0.97817233  0.39023876    -0.81300
O295        O  0.75513055  0.86720072  0.43801563    -0.84100
C296        C  0.84188350  0.90582512  0.38933206     0.96700
C297        C  0.87632505  0.00173301  0.39739277     1.04100
O298        O  0.79650866  0.93381854  0.41409491    -1.13100
O299        O  0.77230904  0.93557718  0.45933119    -0.75500
O300        O  0.82919861  0.97340629  0.45272962    -0.79000
O301        O  0.83055542  0.92199030  0.37644448    -0.79700
C302        C  0.80172736  0.96210600  0.46474555     0.95600
O303        O  0.80852127  0.89886448  0.45224770    -0.77600
O304        O  0.74380605  0.95203124  0.42111729    -0.82800
C305        C  0.72864419  0.88471270  0.37998412     0.98200
C306        C  0.75509184  0.97617869  0.40644484     1.04100
O307        O  0.75787471  0.90760996  0.37212605    -0.78500
C308        C  0.77995839  0.87008212  0.45036617     1.02400
Fe309      Fe  0.16420555  0.61734806  0.10477817     1.65800
Fe310      Fe  0.07950581  0.59593166  0.09881279     1.73200
Fe311      Fe  0.13390091  0.62262691  0.05434749     1.54400
O312        O  0.18661665  0.66119175  0.05809218    -0.82200
O313        O  0.05795832  0.55536853  0.07653966    -0.80500
O314        O  0.19558282  0.66875196  0.09459676    -0.84700
O315        O  0.18460915  0.59923815  0.08021301    -0.79600
O316        O  0.11941872  0.66116393  0.05882409    -0.81300
O317        O  0.08342734  0.56221733  0.12166504    -0.84100
C318        C  0.17155517  0.58137228  0.06254807     0.96700
C319        C  0.20570941  0.67808048  0.07464335     1.04100
O320        O  0.12590513  0.61193698  0.08608465    -1.13100
O321        O  0.09825120  0.63537859  0.12229433    -0.75500
O322        O  0.14753167  0.63493240  0.13184288    -0.79000
O323        O  0.14903596  0.58442674  0.05050769    -0.79700
C324        C  0.12330821  0.64245365  0.13573629     0.95600
O325        O  0.13577737  0.56634344  0.11607240    -0.77600
O326        O  0.06996737  0.62794873  0.07785909    -0.82800
C327        C  0.05918701  0.55761330  0.05543691     0.98200
C328        C  0.09151832  0.65673327  0.06851282     1.04100
O329        O  0.08265121  0.58479636  0.04534383    -0.78500
C330        C  0.10563330  0.55186103  0.12518288     1.02400
Fe331      Fe  0.97273558  0.83923013  0.09431375     1.65800
Fe332      Fe  0.93569322  0.75046097  0.09720570     1.73200
Fe333      Fe  0.97593390  0.80113909  0.14190252     1.54400
O334        O  0.01639689  0.85280340  0.14024420    -0.82200
O335        O  0.89971131  0.73050716  0.12360782    -0.80500
O336        O  0.02459281  0.86384008  0.10429321    -0.84700
O337        O  0.95701789  0.85842746  0.12103580    -0.79600
O338        O  0.00990413  0.78297589  0.13183962    -0.81300
O339        O  0.90061832  0.76096207  0.07954680    -0.84100
C340        C  0.93942369  0.84422972  0.13876298     0.96700
C341        C  0.03454736  0.87198152  0.12422919     1.04100
O342        O  0.96085618  0.79683345  0.11084970    -1.13100
O343        O  0.96944856  0.76580683  0.06980940    -0.75500
O344        O  0.98866984  0.82346729  0.06642487    -0.79000
O345        O  0.94129144  0.81971617  0.14946011    -0.79700
C346        C  0.98700544  0.79511586  0.05977235     0.95600
O347        O  0.92278596  0.81910595  0.08195525    -0.77600
O348        O  0.96937948  0.73638670  0.11291894    -0.82800
C349        C  0.90796918  0.72954903  0.14388303     0.98200
C350        C  0.00094332  0.75578941  0.11966626     1.04100
O351        O  0.93848271  0.75070939  0.15106648    -0.78500
C352        C  0.89928564  0.78895813  0.07547578     1.02400
Fe353      Fe  0.68620934  0.45969944  0.25848203     1.65800
Fe354      Fe  0.71478939  0.54777838  0.25905702     1.73200
Fe355      Fe  0.68850452  0.50189415  0.21136778     1.54400
O356        O  0.72937431  0.49006464  0.20718168    -0.82200
O357        O  0.68055177  0.55895903  0.24149872    -0.80500
O358        O  0.71093800  0.44751695  0.23333974    -0.84700
O359        O  0.63728086  0.43068912  0.24354106    -0.79600
O360        O  0.72252461  0.55437732  0.20570525    -0.81300
O361        O  0.67637904  0.52564128  0.28380799    -0.84100
C362        C  0.63376487  0.42521045  0.22275856     0.96700
C363        C  0.73205816  0.46589056  0.21782717     1.04100
O364        O  0.69669401  0.50314684  0.24335829    -1.13100
O365        O  0.74958704  0.54005697  0.27875257    -0.75500
O366        O  0.73329895  0.48310543  0.27569559    -0.79000
O367        O  0.65319460  0.44873666  0.20903877    -0.79700
C368        C  0.75322818  0.51361054  0.28360668     0.95600
O369        O  0.66162047  0.46872970  0.28476617    -0.77600
O370        O  0.75536193  0.57503962  0.23581742    -0.82800
C371        C  0.65225058  0.53955119  0.23076790     0.98200
C372        C  0.75018214  0.57737741  0.21514520     1.04100
O373        O  0.64845001  0.51408955  0.21818819    -0.78500
C374        C  0.65977559  0.49494133  0.29227875     1.02400
Fe375      Fe  0.47996278  0.67569381  0.25051701     1.65800
Fe376      Fe  0.56699453  0.70339444  0.25672609     1.73200
Fe377      Fe  0.51036590  0.66404694  0.29941457     1.54400
O378        O  0.49071706  0.69810133  0.30728886    -0.82200
O379        O  0.57765595  0.66772854  0.27283835    -0.80500
O380        O  0.45756828  0.68815988  0.27667039    -0.84700
O381        O  0.44990020  0.62253354  0.25772103    -0.79600
O382        O  0.55941956  0.70102290  0.31099233    -0.81300
O383        O  0.55166809  0.67043453  0.22903488    -0.84100
C384        C  0.44000598  0.61034065  0.27725177     0.96700
C385        C  0.46666986  0.70032346  0.29629254     1.04100
O386        O  0.51913857  0.68128632  0.26871991    -1.13100
O387        O  0.56167365  0.74063690  0.23835819    -0.75500
O388        O  0.50576866  0.72811291  0.24187226    -0.79000
O389        O  0.45919336  0.62469216  0.29412694    -0.79700
C390        C  0.53693872  0.74746023  0.23484752     0.95600
O391        O  0.49818470  0.66323722  0.22209429    -0.77600
O392        O  0.58621155  0.73860142  0.28332968    -0.82800
C393        C  0.55695169  0.63688015  0.28005022     0.98200
C394        C  0.58263078  0.73101216  0.30402457     1.04100
O395        O  0.52877552  0.62937377  0.29078779    -0.78500
C396        C  0.52478662  0.66039260  0.21657394     1.02400
Fe397      Fe  0.02470210  0.12732315  0.92926675     1.65800
Fe398      Fe  0.05596744  0.21489273  0.93187819     1.73200
Fe399      Fe  0.01561513  0.16967838  0.88584748     1.54400
O400        O  0.05257147  0.15562241  0.87511018    -0.82200
O401        O  0.02028373  0.22928227  0.91934575    -0.80500
O402        O  0.03531854  0.11099838  0.89924944    -0.84700
O403        O  0.97163672  0.10262484  0.92225793    -0.79600
O404        O  0.05082423  0.22185312  0.87892072    -0.81300
O405        O  0.02316915  0.19463181  0.95921482    -0.84100
C406        C  0.96068808  0.09552164  0.90235720     0.96700
C407        C  0.05424919  0.12920145  0.88293972     1.04100
O408        O  0.03214714  0.17070370  0.91605109    -1.13100
O409        O  0.09230731  0.20353615  0.94700469    -0.75500
O410        O  0.07690567  0.14850184  0.93731369    -0.79000
O411        O  0.97701487  0.11662869  0.88651313    -0.79700
C412        C  0.09732890  0.17710988  0.94717305     0.95600
O413        O  0.01388729  0.13949970  0.96052245    -0.77600
O414        O  0.09094489  0.23866600  0.90555122    -0.82800
C415        C  0.98900740  0.21069650  0.91180107     0.98200
C416        C  0.08168634  0.24197872  0.88599218     1.04100
O417        O  0.98044298  0.18451888  0.89871086    -0.78500
C418        C  0.01204930  0.16521373  0.96899101     1.02400
Fe419      Fe  0.81569071  0.33903101  0.92657659     1.65800
Fe420      Fe  0.90373037  0.36802010  0.92887790     1.73200
Fe421      Fe  0.85483856  0.34545869  0.97569761     1.54400
O422        O  0.83950317  0.38408912  0.97757798    -0.82200
O423        O  0.91576224  0.33757935  0.94977637    -0.80500
O424        O  0.80041734  0.36445415  0.94936152    -0.84700
O425        O  0.78514499  0.29081291  0.94220514    -0.79600
O426        O  0.90669787  0.38327309  0.98164865    -0.81300
O427        O  0.88423882  0.32713185  0.90643818    -0.84100
C428        C  0.77898923  0.28791252  0.96298003     0.96700
C429        C  0.81519116  0.38480399  0.96587636     1.04100
O430        O  0.85798009  0.35084698  0.94341671    -1.13100
O431        O  0.89699843  0.40008845  0.90623844    -0.75500
O432        O  0.84063233  0.38565356  0.90933864    -0.79000
O433        O  0.80211476  0.30785957  0.97680011    -0.79700
C434        C  0.87133825  0.40495772  0.90157382     0.95600
O435        O  0.82798465  0.31379901  0.90212499    -0.77600
O436        O  0.92722039  0.41093047  0.94960644    -0.82800
C437        C  0.89590376  0.30991051  0.96088360     0.98200
C438        C  0.92836062  0.41011931  0.97066728     1.04100
O439        O  0.86936177  0.30647025  0.97205874    -0.78500
C440        C  0.85462286  0.31087225  0.89678271     1.02400
Fe441      Fe  0.31148579  0.49766084  0.76363978     1.65800
Fe442      Fe  0.26654036  0.40828006  0.76294757     1.73200
Fe443      Fe  0.30317232  0.45268188  0.81025947     1.54400
O444        O  0.34322992  0.50370455  0.81311233    -0.82200
O445        O  0.22903062  0.38528340  0.78825448    -0.80500
O446        O  0.36038201  0.52199347  0.77902741    -0.84700
O447        O  0.28863110  0.51314649  0.78820502    -0.79600
O448        O  0.33703906  0.43341221  0.80124259    -0.81300
O449        O  0.23259636  0.42242151  0.74716330    -0.84100
C450        C  0.26818255  0.49768653  0.80475457     0.96700
C451        C  0.36418559  0.52682362  0.79980382     1.04100
O452        O  0.29345424  0.45286470  0.77863941    -1.13100
O453        O  0.30003680  0.42507706  0.73564353    -0.75500
O454        O  0.33415918  0.48342487  0.73883719    -0.79000
O455        O  0.26817392  0.47220039  0.81573950    -0.79700
C456        C  0.32564881  0.45432152  0.72942694     0.95600
O457        O  0.26587403  0.48073025  0.74557700    -0.77600
O458        O  0.30015096  0.39209087  0.77691776    -0.82800
C459        C  0.23606378  0.38141203  0.80822320     0.98200
C460        C  0.32947752  0.40796523  0.78751068     1.04100
O461        O  0.26552709  0.40191042  0.81667677    -0.78500
C462        C  0.23779946  0.45251666  0.74091350     1.02400
Fe463      Fe  0.52112581  0.29273885  0.76092608     1.65800
Fe464      Fe  0.43189136  0.25008527  0.76530562     1.73200
Fe465      Fe  0.47194703  0.28334545  0.71592993     1.54400
O466        O  0.52316640  0.32498315  0.71226781    -0.82200
O467        O  0.40575305  0.21141041  0.74157744    -0.80500
O468        O  0.54223299  0.34193823  0.74634013    -0.84700
O469        O  0.53579476  0.27220377  0.73447646    -0.79600
O470        O  0.45224864  0.31684829  0.72493818    -0.81300
O471        O  0.44723036  0.21702130  0.78047677    -0.84100
C472        C  0.51802136  0.24985335  0.71938002     0.96700
C473        C  0.54638723  0.34636963  0.72552339     1.04100
O474        O  0.47486510  0.27524224  0.74774096    -1.13100
O475        O  0.45139709  0.28368763  0.79201466    -0.75500
O476        O  0.50995709  0.31324581  0.78850450    -0.79000
O477        O  0.49115270  0.24867693  0.70979160    -0.79700
C478        C  0.48181123  0.30562026  0.79891478     0.95600
O479        O  0.50588568  0.24647413  0.77776231    -0.77600
O480        O  0.41492607  0.28335186  0.75224974    -0.82800
C481        C  0.40088373  0.21498285  0.72114999     0.98200
C482        C  0.42864002  0.31081094  0.73982142     1.04100
O483        O  0.42093416  0.24310276  0.71080591    -0.78500
C484        C  0.47741930  0.22062941  0.78478609     1.02400
Fe485      Fe  0.13757647  0.00921658  0.59467735     1.65800
Fe486      Fe  0.22561908  0.04272794  0.59323843     1.73200
Fe487      Fe  0.17984651  0.00961109  0.64108568     1.54400
O488        O  0.16156935  0.04498580  0.64772812    -0.82200
O489        O  0.24058067  0.00980127  0.60863270    -0.80500
O490        O  0.11836831  0.02163599  0.62264306    -0.84700
O491        O  0.11525477  0.95744186  0.60453798    -0.79600
O492        O  0.23090184  0.04947562  0.64815836    -0.81300
O493        O  0.20643265  0.00703589  0.56707286    -0.84100
C494        C  0.10859494  0.94826833  0.62480929     0.96700
C495        C  0.13500051  0.04381730  0.63789059     1.04100
O496        O  0.18130786  0.02073954  0.60941808    -1.13100
O497        O  0.21376338  0.07687417  0.57608155    -0.75500
O498        O  0.15751241  0.05996573  0.58374553    -0.79000
O499        O  0.12799600  0.96774876  0.64046731    -0.79700
C500        C  0.18684607  0.08094499  0.57469862     0.95600
O501        O  0.15102962  0.99613185  0.56479432    -0.77600
O502        O  0.24992767  0.08114904  0.61722119    -0.82800
C503        C  0.22284687  0.98060544  0.61885661     0.98200
C504        C  0.25250486  0.07744308  0.63801525     1.04100
O505        O  0.19799723  0.97481981  0.63254409    -0.78500
C506        C  0.17734535  0.99504707  0.55681646     1.02400
Fe507      Fe  0.34139646  0.79825335  0.60392576     1.65800
Fe508      Fe  0.38092907  0.88658149  0.60158052     1.73200
Fe509      Fe  0.34991478  0.83753320  0.55379496     1.54400
O510        O  0.38126423  0.81317925  0.55078414    -0.82200
O511        O  0.34257685  0.89562213  0.58886638    -0.80500
O512        O  0.36931723  0.78333759  0.58335473    -0.84700
O513        O  0.29484209  0.76714570  0.58705201    -0.79600
O514        O  0.39294308  0.88488121  0.54543118    -0.81300
O515        O  0.35155455  0.86778404  0.63071574    -0.84100
C516        C  0.28742900  0.76432140  0.56651464     0.96700
C517        C  0.38493821  0.79248880  0.56452443     1.04100
O518        O  0.35772155  0.84086290  0.58621724    -1.13100
O519        O  0.41931290  0.87823891  0.61532697    -0.75500
O520        O  0.38557170  0.82160510  0.62413626    -0.79000
O521        O  0.30575121  0.78842232  0.55280838    -0.79700
C522        C  0.41418473  0.85069968  0.62563626     0.95600
O523        O  0.31293810  0.81133611  0.62542767    -0.77600
O524        O  0.41599158  0.91456668  0.57635523    -0.82800
C525        C  0.31910277  0.88253687  0.57368816     0.98200
C526        C  0.41655771  0.91137479  0.55543325     1.04100
O527        O  0.31826800  0.86137646  0.55842377    -0.78500
C528        C  0.32510079  0.83919968  0.63688502     1.02400
Fe529      Fe  0.46894178  0.75719361  0.76807662     1.65800
Fe530      Fe  0.55577990  0.81186082  0.75828460     1.73200
Fe531      Fe  0.52124686  0.80603606  0.80945005     1.54400
O532        O  0.46833189  0.79248306  0.81429655    -0.82200
O533        O  0.58662933  0.80246232  0.78079893    -0.80500
O534        O  0.44617127  0.78551969  0.78038747    -0.84700
O535        O  0.45923901  0.72961046  0.79778247    -0.79600
O536        O  0.53546572  0.85724796  0.79957967    -0.81300
O537        O  0.54244763  0.76370640  0.74353788    -0.84100
C538        C  0.48174726  0.72737776  0.81013295     0.96700
C539        C  0.44321881  0.78736960  0.80128446     1.04100
O540        O  0.51538269  0.79223945  0.77810995    -1.13100
O541        O  0.52978165  0.82267458  0.73321583    -0.75500
O542        O  0.47399548  0.78017110  0.73734268    -0.79000
O543        O  0.50918064  0.75463593  0.81718291    -0.79700
C544        C  0.49832907  0.80505536  0.72628955     0.95600
O545        O  0.48774931  0.72619400  0.75493861    -0.77600
O546        O  0.57096595  0.86169905  0.77086481    -0.82800
C547        C  0.59331255  0.81212375  0.80099184     0.98200
C548        C  0.55795497  0.87506558  0.78430960     1.04100
O549        O  0.57414549  0.82115900  0.81179662    -0.78500
C550        C  0.51558077  0.73300665  0.74426571     1.02400
Fe551      Fe  0.69280551  0.18918639  0.77348805     1.65800
Fe552      Fe  0.72255583  0.13082659  0.77281008     1.73200
Fe553      Fe  0.68941648  0.14729278  0.72624218     1.54400
O554        O  0.64877411  0.15969393  0.72806629    -0.82200
O555        O  0.76077256  0.14507449  0.74842284    -0.80500
O556        O  0.64068208  0.16392464  0.76413163    -0.84700
O557        O  0.70687027  0.22257279  0.74614174    -0.79600
O558        O  0.65389094  0.09469233  0.73373507    -0.81300
O559        O  0.75794604  0.17466934  0.79080579    -0.84100
C560        C  0.72752080  0.22634502  0.73012676     0.96700
C561        C  0.63074366  0.16182598  0.74404093     1.04100
O562        O  0.70145423  0.15547414  0.75777608    -1.13100
O563        O  0.68642750  0.11424684  0.79865999    -0.75500
O564        O  0.67833845  0.16055526  0.80280903    -0.79000
O565        O  0.72628859  0.20005870  0.71998423    -0.79700
C566        C  0.67476735  0.13132381  0.80945808     0.95600
O567        O  0.74405556  0.21665796  0.78376761    -0.77600
O568        O  0.68858045  0.08445909  0.75678376    -0.82800
C569        C  0.75612882  0.13977506  0.72757900     0.98200
C570        C  0.65995943  0.07414018  0.74599390     1.04100
O571        O  0.72764529  0.13393835  0.71825154    -0.78500
C572        C  0.76419481  0.20633812  0.79208932     1.02400
Fe573      Fe  0.16555188  0.52657760  0.60547857     1.65800
Fe574      Fe  0.07957964  0.46591629  0.60461636     1.73200
Fe575      Fe  0.12905827  0.48414600  0.55806669     1.54400
O576        O  0.14257937  0.53673007  0.55172523    -0.82200
O577        O  0.06803044  0.42102762  0.58714080    -0.80500
O578        O  0.18345996  0.55995976  0.57825123    -0.84700
O579        O  0.19411613  0.50280995  0.59603059    -0.79600
O580        O  0.07721917  0.46990389  0.55029984    -0.81300
O581        O  0.10098663  0.44903578  0.62985038    -0.84100
C582        C  0.20208559  0.49979530  0.57612680     0.96700
C583        C  0.16601902  0.56329495  0.56237617     1.04100
O584        O  0.12462682  0.49212320  0.58958427    -1.13100
O585        O  0.08615403  0.50789616  0.62400491    -0.75500
O586        O  0.13958017  0.55232442  0.61625576    -0.79000
O587        O  0.18239776  0.49762734  0.55982499    -0.79700
C588        C  0.10972661  0.53999730  0.62566605     0.95600
O589        O  0.15271801  0.49764116  0.63452913    -0.77600
O590        O  0.05509103  0.48085193  0.58061536    -0.82800
C591        C  0.08794394  0.41104538  0.57803982     0.98200
C592        C  0.05457460  0.47590338  0.55966881     1.04100
O593        O  0.11443932  0.43169636  0.56598080    -0.78500
C594        C  0.12913190  0.46736628  0.64090300     1.02400
Fe595      Fe  0.95356538  0.10209994  0.58418295     1.65800
Fe596      Fe  0.92513607  0.16109356  0.58957506     1.73200
Fe597      Fe  0.95803464  0.13898676  0.63402029     1.54400
O598        O  0.92385086  0.08532606  0.63950156    -0.82200
O599        O  0.95685237  0.20489146  0.60864702    -0.80500
O600        O  0.93784557  0.06479165  0.60922595    -0.84700
O601        O  0.00558988  0.12415366  0.59388723    -0.79600
O602        O  0.91816716  0.14918201  0.64358274    -0.81300
O603        O  0.96318829  0.18199467  0.56482304    -0.84100
C604        C  0.01638960  0.12613562  0.61377970     0.96700
C605        C  0.92310692  0.06018828  0.62819356     1.04100
O606        O  0.94546998  0.13393582  0.60246636    -1.13100
O607        O  0.89176497  0.12150616  0.56803704    -0.75500
O608        O  0.90250450  0.07705278  0.57291300    -0.79000
O609        O  0.99950997  0.12868324  0.63024696    -0.79700
C610        C  0.88494172  0.09013607  0.56426026     0.95600
O611        O  0.96967317  0.13546448  0.55691672    -0.77600
O612        O  0.88557747  0.14176263  0.61343431    -0.82800
C613        C  0.98606739  0.21416524  0.61831275     0.98200
C614        C  0.88948807  0.14346941  0.63451434     1.04100
O615        O  0.99277006  0.19234214  0.62842259    -0.78500
C616        C  0.97450153  0.16602670  0.55251092     1.02400
Fe617      Fe  0.62644009  0.43779307  0.92404766     1.65800
Fe618      Fe  0.60106621  0.49990234  0.92431750     1.73200
Fe619      Fe  0.62716261  0.47803544  0.97167112     1.54400
O620        O  0.58719429  0.42590572  0.97665999    -0.82200
O621        O  0.63397039  0.54370650  0.94286534    -0.80500
O622        O  0.60342416  0.40138449  0.94951054    -0.84700
O623        O  0.67635261  0.45619327  0.93741245    -0.79600
O624        O  0.59118093  0.49515471  0.97781920    -0.81300
O625        O  0.64000400  0.51665178  0.90024764    -0.84100
C626        C  0.68210813  0.45565343  0.95810281     0.96700
C627        C  0.58402790  0.39902488  0.96604921     1.04100
O628        O  0.61822267  0.47181041  0.93970218    -1.13100
O629        O  0.56696158  0.45985520  0.90369815    -0.75500
O630        O  0.57781112  0.41556246  0.90916165    -0.79000
O631        O  0.66380380  0.46063560  0.97252569    -0.79700
C632        C  0.56017923  0.42846356  0.90033767     0.95600
O633        O  0.64887841  0.47049163  0.89687589    -0.77600
O634        O  0.56016057  0.48460797  0.94681666    -0.82800
C635        C  0.66297251  0.55173922  0.95248493     0.98200
C636        C  0.56304401  0.48879862  0.96779806     1.04100
O637        O  0.66690395  0.52979632  0.96477644    -0.78500
C638        C  0.65319943  0.50012118  0.89035216     1.02400
Fe639      Fe  0.85101102  0.85833800  0.92941700     1.65800
Fe640      Fe  0.76293611  0.80439249  0.92995846     1.73200
Fe641      Fe  0.80974804  0.81562596  0.88272618     1.54400
O642        O  0.82840651  0.86857923  0.87504879    -0.82200
O643        O  0.74774422  0.75656917  0.91471559    -0.80500
O644        O  0.86923254  0.89126340  0.90196266    -0.84700
O645        O  0.87603563  0.83111850  0.91941118    -0.79600
O646        O  0.75889798  0.80572270  0.87513711    -0.81300
O647        O  0.78175187  0.78690759  0.95593643    -0.84100
C648        C  0.88265706  0.82781939  0.89927192     0.96700
C649        C  0.85394743  0.89464892  0.88479670     1.04100
O650        O  0.80783192  0.82611923  0.91424336    -1.13100
O651        O  0.77361687  0.84955936  0.94746324    -0.75500
O652        O  0.82988668  0.88830887  0.94070368    -0.79000
O653        O  0.86176029  0.82506151  0.88363003    -0.79700
C654        C  0.80008143  0.88027149  0.94896340     0.95600
O655        O  0.83761406  0.82969407  0.95871666    -0.77600
O656        O  0.74018658  0.82025749  0.90552492    -0.82800
C657        C  0.76500195  0.74421947  0.90462720     0.98200
C658        C  0.73846399  0.81463015  0.88467812     1.04100
O659        O  0.79093727  0.76287638  0.89163331    -0.78500
C660        C  0.81114431  0.80197672  0.96596973     1.02400
Fe661      Fe  0.36157127  0.54021713  0.08756637     1.65800
Fe662      Fe  0.38673418  0.48039825  0.09962876     1.73200
Fe663      Fe  0.35412789  0.48198365  0.04882942     1.54400
O664        O  0.31593684  0.49768999  0.04490717    -0.82200
O665        O  0.42411123  0.48558339  0.07630972    -0.80500
O666        O  0.30919377  0.51342632  0.07885247    -0.84700
O667        O  0.37516622  0.56202040  0.05596780    -0.79600
O668        O  0.31702334  0.43353792  0.06176730    -0.81300
O669        O  0.42390061  0.52885520  0.11246197    -0.84100
C670        C  0.39603357  0.55958911  0.04226504     0.96700
C671        C  0.29938411  0.50632589  0.05872255     1.04100
O672        O  0.36705697  0.50046392  0.07909663    -1.13100
O673        O  0.35206341  0.47493052  0.12494605    -0.75500
O674        O  0.34771009  0.52330461  0.11992986    -0.79000
O675        O  0.39325826  0.53013869  0.03698217    -0.79700
C676        C  0.34347357  0.49727065  0.13169883     0.95600
O677        O  0.41357706  0.56964224  0.09722816    -0.77600
O678        O  0.35015853  0.42987822  0.08935570    -0.82800
C679        C  0.41943280  0.47516044  0.05621524     0.98200
C680        C  0.32242342  0.41642425  0.07724547     1.04100
O681        O  0.38996067  0.46411714  0.04667422    -0.78500
C682        C  0.43187334  0.56086586  0.10949095     1.02400
Fe683      Fe  0.13716673  0.10578282  0.09565922     1.65800
Fe684      Fe  0.22574967  0.15921647  0.09532189     1.73200
Fe685      Fe  0.17859768  0.14961010  0.14179261     1.54400
O686        O  0.12584262  0.13585118  0.14204219    -0.82200
O687        O  0.24907404  0.14580286  0.12116210    -0.80500
O688        O  0.10997018  0.13050780  0.10681488    -0.84700
O689        O  0.12238836  0.07246830  0.12313893    -0.79600
O690        O  0.19430723  0.20091921  0.13217097    -0.81300
O691        O  0.21620221  0.11317560  0.07867850    -0.84100
C692        C  0.13931798  0.07075280  0.14008178     0.96700
C693        C  0.10331226  0.13134624  0.12725428     1.04100
O694        O  0.18050980  0.13824865  0.11050459    -1.13100
O695        O  0.20720884  0.17440466  0.06812858    -0.75500
O696        O  0.14947567  0.13579986  0.06693761    -0.79000
O697        O  0.16383349  0.09783130  0.14973661    -0.79700
C698        C  0.17723462  0.16139008  0.05885618     0.95600
O699        O  0.15849327  0.07719515  0.08257717    -0.77600
O700        O  0.23842579  0.20769048  0.10943792    -0.82800
C701        C  0.25144011  0.15584366  0.14125628     0.98200
C702        C  0.22102490  0.21982966  0.11980946     1.04100
O703        O  0.23034121  0.16505798  0.14908256    -0.78500
C704        C  0.18845506  0.08373731  0.07543876     1.02400
Fe705      Fe  0.80118208  0.42365634  0.42885933     1.65800
Fe706      Fe  0.88882878  0.47940920  0.42380481     1.73200
Fe707      Fe  0.84747355  0.47128066  0.47248775     1.54400
O708        O  0.79460912  0.45842718  0.47392977    -0.82200
O709        O  0.91577115  0.46736652  0.44791411    -0.80500
O710        O  0.77635586  0.45125028  0.43894023    -0.84700
O711        O  0.78685434  0.39488634  0.45827556    -0.79600
O712        O  0.86295170  0.52299633  0.46236035    -0.81300
O713        O  0.87691871  0.43284393  0.40795568    -0.84100
C714        C  0.80716881  0.39213940  0.47234767     0.96700
C715        C  0.77129693  0.45373552  0.45952632     1.04100
O716        O  0.84586260  0.45857963  0.44127435    -1.13100
O717        O  0.86608201  0.49267170  0.39767444    -0.75500
O718        O  0.81089657  0.44785076  0.39800051    -0.79000
O719        O  0.83369133  0.41921650  0.48054545    -0.79700
C720        C  0.83608924  0.47442970  0.38861448     0.95600
O721        O  0.82221056  0.39331508  0.41803138    -0.77600
O722        O  0.90385825  0.52825779  0.43748917    -0.82800
C723        C  0.91955126  0.47589532  0.46838568     0.98200
C724        C  0.88773737  0.54115727  0.44840041     1.04100
O725        O  0.89964300  0.48548659  0.47772512    -0.78500
C726        C  0.85081469  0.40176285  0.40785111     1.02400
Fe727      Fe  0.02054738  0.84720487  0.43791687     1.65800
Fe728      Fe  0.05634019  0.79351963  0.43434895     1.73200
Fe729      Fe  0.02316796  0.81293300  0.38806032     1.54400
O730        O  0.98041294  0.82192925  0.38904377    -0.82200
O731        O  0.09349422  0.80739426  0.40954147    -0.80500
O732        O  0.97056077  0.82601244  0.42472459    -0.84700
O733        O  0.04178121  0.88673126  0.41424496    -0.79600
O734        O  0.98955038  0.75887674  0.39343733    -0.81300
O735        O  0.09271287  0.83709298  0.45189964    -0.84100
C736        C  0.05945625  0.89188777  0.39636517     0.96700
C737        C  0.96164213  0.82386755  0.40446501     1.04100
O738        O  0.03354952  0.81794337  0.42027067    -1.13100
O739        O  0.02332883  0.77668502  0.46163704    -0.75500
O740        O  0.99885514  0.81108003  0.46332435    -0.79000
O741        O  0.05713542  0.86696675  0.38398573    -0.79700
C742        C  0.00320831  0.78624093  0.47070498     0.95600
O743        O  0.06863484  0.87183800  0.45382878    -0.77600
O744        O  0.02077460  0.74734042  0.41883967    -0.82800
C745        C  0.09115054  0.80712196  0.38850151     0.98200
C746        C  0.99389838  0.73778000  0.40635333     1.04100
O747        O  0.06412873  0.80439097  0.37880413    -0.78500
C748        C  0.09302512  0.86490783  0.45846249     1.02400
Fe749      Fe  0.26803206  0.75496180  0.25376946     1.65800
Fe750      Fe  0.26589212  0.83062462  0.25198038     1.73200
Fe751      Fe  0.29671831  0.80776494  0.29867887     1.54400
O752        O  0.26519739  0.75445428  0.30836339    -0.82200
O753        O  0.31334727  0.87218930  0.25968524    -0.80500
O754        O  0.23311878  0.72742507  0.27827604    -0.84700
O755        O  0.30702533  0.75062653  0.27073969    -0.79600
O756        O  0.25689644  0.81691145  0.30914092    -0.81300
O757        O  0.28950263  0.82593972  0.22275170    -0.84100
C758        C  0.33246087  0.76853097  0.28386249     0.96700
C759        C  0.24057745  0.72735168  0.29870494     1.04100
O760        O  0.27736922  0.79835682  0.26810436    -1.13100
O761        O  0.21648034  0.79329257  0.24153821    -0.75500
O762        O  0.22671185  0.74942643  0.23474440    -0.79000
O763        O  0.33776372  0.79780073  0.29160105    -0.79700
C764        C  0.20785688  0.76385374  0.23289245     0.95600
O765        O  0.30197026  0.78227077  0.22842242    -0.77600
O766        O  0.24104991  0.83740663  0.27963885    -0.82800
C767        C  0.33501955  0.88158422  0.27562694     0.98200
C768        C  0.23797037  0.82824949  0.30009933     1.04100
O769        O  0.33115624  0.86167432  0.29228950    -0.78500
C770        C  0.30393453  0.80780047  0.21693206     1.02400
Fe771      Fe  0.51098840  0.19250423  0.25874427     1.65800
Fe772      Fe  0.42311478  0.13496680  0.25990672     1.73200
Fe773      Fe  0.46960003  0.14716896  0.21299756     1.54400
O774        O  0.48240051  0.19869594  0.20508378    -0.82200
O775        O  0.41230778  0.08718278  0.24579945    -0.80500
O776        O  0.52487427  0.22487183  0.23095522    -0.84700
O777        O  0.53971580  0.16924203  0.24748577    -0.79600
O778        O  0.41730721  0.12961909  0.20616659    -0.81300
O779        O  0.44387970  0.12144567  0.28681088    -0.84100
C780        C  0.54584918  0.16882319  0.22687491     0.96700
C781        C  0.50777794  0.22606863  0.21400320     1.04100
O782        O  0.46793440  0.15821543  0.24429621    -1.13100
O783        O  0.43086167  0.18002626  0.27630782    -0.75500
O784        O  0.48751673  0.21975602  0.27135971    -0.79000
O785        O  0.52259158  0.16309667  0.21239680    -0.79700
C786        C  0.45704014  0.21070033  0.27891640     0.95600
O787        O  0.50030546  0.16377109  0.28796487    -0.77600
O788        O  0.39767963  0.14687678  0.23461378    -0.82800
C789        C  0.43137617  0.07672178  0.23576857     0.98200
C790        C  0.39565451  0.13780793  0.21434044     1.04100
O791        O  0.45677239  0.09650934  0.22273517    -0.78500
C792        C  0.47383284  0.13693603  0.29620047     1.02400
C793        C  0.36465302  0.91800607  0.27402860    -0.05800
C794        C  0.37343702  0.94123889  0.29207009    -0.05700
C795        C  0.39220511  0.97769525  0.28839700    -0.23900
C796        C  0.40208862  0.99118537  0.26663012     0.18400
C797        C  0.39631061  0.96797726  0.24874602     0.15600
C798        C  0.37812080  0.93158859  0.25265493    -0.18900
C799        C  0.40629107  0.98140680  0.22698100    -0.20700
C800        C  0.41971942  0.01734878  0.22272141    -0.13300
C801        C  0.42302508  0.04012729  0.24014875     0.03400
C802        C  0.41537088  0.02711190  0.26217993    -0.25400
H803        H  0.36321927  0.93136016  0.30858489     0.08500
H804        H  0.39694186  0.99526977  0.30233503     0.12100
H805        H  0.37160717  0.91371746  0.23864756     0.12000
H806        H  0.40221352  0.96388586  0.21311778     0.11800
H807        H  0.42565036  0.02698075  0.20571226     0.12300
H808        H  0.41826387  0.04477948  0.27572763     0.14300
C809        C  0.12103096  0.81033688  0.37484264    -0.05800
C810        C  0.14832557  0.80688643  0.38493986    -0.05700
C811        C  0.17693890  0.81057841  0.37240112    -0.23900
C812        C  0.17907326  0.81810661  0.34951597     0.18400
C813        C  0.15196090  0.82178343  0.33910401     0.15600
C814        C  0.12300799  0.81765012  0.35178027    -0.18900
C815        C  0.15433953  0.82952798  0.31620675    -0.20700
C816        C  0.18302133  0.83308668  0.30369491    -0.13300
C817        C  0.20986315  0.82883984  0.31380916     0.03400
C818        C  0.20772548  0.82164954  0.33686374    -0.25400
H819        H  0.14754456  0.80121132  0.40260368     0.08500
H820        H  0.19748489  0.80761378  0.38064788     0.12100
H821        H  0.10228892  0.82057755  0.34373871     0.12000
H822        H  0.13381100  0.83245657  0.30790626     0.11800
H823        H  0.18366073  0.83820315  0.28595623     0.12300
H824        H  0.22806947  0.81815663  0.34495959     0.14300
C825        C  0.89922954  0.57868145  0.44363698    -0.05800
C826        C  0.90274800  0.60248262  0.46046631    -0.05700
C827        C  0.91922587  0.63872699  0.45583027    -0.23900
C828        C  0.93215051  0.65154870  0.43427418     0.18400
C829        C  0.92664708  0.62756966  0.41693645     0.15600
C830        C  0.91018237  0.59142430  0.42173276    -0.18900
C831        C  0.93930792  0.64024845  0.39533777    -0.20700
C832        C  0.95913362  0.67652643  0.39121447    -0.13300
C833        C  0.96644393  0.70051299  0.40861771     0.03400
C834        C  0.95204887  0.68788035  0.42997582    -0.25400
H835        H  0.89443730  0.59329118  0.47736690     0.08500
H836        H  0.92298471  0.65682658  0.46927046     0.12100
H837        H  0.90705889  0.57317022  0.40850890     0.12000
H838        H  0.93513487  0.62208759  0.38185844     0.11800
H839        H  0.97043143  0.68574992  0.37482063     0.12300
H840        H  0.95792547  0.70641011  0.44352131     0.14300
C841        C  0.36783073  0.13630791  0.19936503    -0.05800
C842        C  0.35855690  0.11516121  0.18010099    -0.05700
C843        C  0.33435434  0.11501316  0.16476291    -0.23900
C844        C  0.31905330  0.13627667  0.16821460     0.18400
C845        C  0.32797967  0.15756447  0.18756258     0.15600
C846        C  0.35214422  0.15731088  0.20309914    -0.18900
C847        C  0.31267964  0.17885968  0.19097006    -0.20700
C848        C  0.28840360  0.17860936  0.17562246    -0.13300
C849        C  0.27908230  0.15732954  0.15640107     0.03400
C850        C  0.29486131  0.13643785  0.15269345    -0.25400
H851        H  0.37021620  0.09868726  0.17680145     0.08500
H852        H  0.32781630  0.09844614  0.15011827     0.12100
H853        H  0.35936400  0.17402074  0.21771960     0.12000
H854        H  0.31925022  0.19549499  0.20558448     0.11800
H855        H  0.27675499  0.19510639  0.17887437     0.12300
H856        H  0.28771219  0.11973516  0.13807245     0.14300
C857        C  0.29613721  0.37926271  0.08180742    -0.05800
C858        C  0.27766523  0.35591827  0.06442167    -0.05700
C859        C  0.25659554  0.31986967  0.06877269    -0.23900
C860        C  0.25337148  0.30681196  0.09063212     0.18400
C861        C  0.27000893  0.33043267  0.10843051     0.15600
C862        C  0.29140732  0.36643186  0.10387768    -0.18900
C863        C  0.26620885  0.31744719  0.13035954    -0.20700
C864        C  0.24775924  0.28114536  0.13445882    -0.13300
C865        C  0.23317126  0.25751677  0.11668304     0.03400
C866        C  0.23524676  0.27046699  0.09488264    -0.25400
H867        H  0.28084709  0.36529933  0.04735723     0.08500
H868        H  0.24368285  0.30210316  0.05498825     0.12100
H869        H  0.30515528  0.38440305  0.11744883     0.12000
H870        H  0.27859615  0.33526285  0.14419701     0.11800
H871        H  0.24666796  0.27147937  0.15128512     0.12300
H872        H  0.22413481  0.25213303  0.08114606     0.14300
C873        C  0.69205892  0.58775870  0.94804936    -0.05800
C874        C  0.70714276  0.61271594  0.96510301    -0.05700
C875        C  0.72771406  0.64859097  0.95979192    -0.23900
C876        C  0.73340248  0.65983853  0.93735799     0.18400
C877        C  0.72039088  0.63463756  0.92012216     0.15600
C878        C  0.69981108  0.59885188  0.92561767    -0.18900
C879        C  0.72632130  0.64580381  0.89768247    -0.20700
C880        C  0.74316126  0.68178057  0.89234474    -0.13300
C881        C  0.75401747  0.70693141  0.90936933     0.03400
C882        C  0.75001270  0.69579850  0.93184312    -0.25400
H883        H  0.70113280  0.60477614  0.98241250     0.08500
H884        H  0.73779154  0.66765305  0.97319867     0.12100
H885        H  0.68796013  0.57975038  0.91238290     0.12000
H886        H  0.71668591  0.62670521  0.88428593     0.11800
H887        H  0.74586197  0.68983967  0.87500823     0.12300
H888        H  0.75843080  0.71518482  0.94505719     0.14300
C889        C  0.53317805  0.48624114  0.98114765    -0.05800
C890        C  0.50210867  0.48107413  0.97069605    -0.05700
C891        C  0.47353575  0.47728072  0.98338775    -0.23900
C892        C  0.47544966  0.47851031  0.00678476     0.18400
C893        C  0.50656976  0.48395106  0.01750731     0.15600
C894        C  0.53517413  0.48778967  0.00465708    -0.18900
C895        C  0.50856403  0.48550027  0.04091199    -0.20700
C896        C  0.48009249  0.48206828  0.05358908    -0.13300
C897        C  0.44896264  0.47659646  0.04310818     0.03400
C898        C  0.44684656  0.47464388  0.01961822    -0.25400
H899        H  0.49977814  0.47975204  0.95267654     0.08500
H900        H  0.44988978  0.47326555  0.97489807     0.12100
H901        H  0.55886890  0.49166798  0.01302580     0.12000
H902        H  0.53225897  0.48967694  0.04940766     0.11800
H903        H  0.48249385  0.48385136  0.07159927     0.12300
H904        H  0.42320803  0.47091359  0.01123726     0.14300
C905        C  0.02690247  0.47690015  0.54555544    -0.05800
C906        C  0.00232200  0.48514876  0.55495590    -0.05700
C907        C  0.97674461  0.48675277  0.54165280    -0.23900
C908        C  0.97513970  0.48010124  0.51864702     0.18400
C909        C  0.99949275  0.47163254  0.50892835     0.15600
C910        C  0.02520458  0.47012258  0.52240239    -0.18900
C911        C  0.99766654  0.46482468  0.48590137    -0.20700
C912        C  0.97190491  0.46633354  0.47264079    -0.13300
C913        C  0.94755416  0.47484190  0.48211700     0.03400
C914        C  0.94950662  0.48172415  0.50524128    -0.25400
H915        H  0.00294182  0.49056704  0.57263309     0.08500
H916        H  0.95821743  0.49325980  0.54937661     0.12100
H917        H  0.04389317  0.46371050  0.51480974     0.12000
H918        H  0.01611360  0.45823871  0.47814703     0.11800
H919        H  0.97103431  0.46080143  0.45496703     0.12300
H920        H  0.93088510  0.48813877  0.51293709     0.14300
C921        C  0.01275450  0.25163323  0.61655232    -0.05800
C922        C  0.01719212  0.27505764  0.63380217    -0.05700
C923        C  0.03628137  0.31141875  0.63005311    -0.23900
C924        C  0.05078572  0.32472082  0.60890713     0.18400
C925        C  0.04781670  0.30138869  0.59170839     0.15600
C926        C  0.02878045  0.26491537  0.59569367    -0.18900
C927        C  0.06225014  0.31494137  0.57053192    -0.20700
C928        C  0.07769130  0.35118432  0.56607548    -0.13300
C929        C  0.07871664  0.37415965  0.58274031     0.03400
C930        C  0.06637138  0.36080279  0.60432655    -0.25400
H931        H  0.00436250  0.26522468  0.64975661     0.08500
H932        H  0.03837701  0.32909748  0.64338329     0.12100
H933        H  0.02469161  0.24675907  0.58223420     0.12000
H934        H  0.06034343  0.29735983  0.55719182     0.11800
H935        H  0.08697901  0.36090613  0.54939079     0.12300
H936        H  0.06736385  0.37844973  0.61737686     0.14300
C937        C  0.78451589  0.14053221  0.71349695    -0.05800
C938        C  0.81887444  0.15405964  0.72188898    -0.05700
C939        C  0.84601970  0.15661266  0.70820915    -0.23900
C940        C  0.83934294  0.14567699  0.68586609     0.18400
C941        C  0.80481444  0.13137947  0.67734003     0.15600
C942        C  0.77765906  0.12880622  0.69119226    -0.18900
C943        C  0.79816806  0.12048163  0.65498195    -0.20700
C944        C  0.82563398  0.12447449  0.64103525    -0.13300
C945        C  0.86020952  0.13911400  0.64923332     0.03400
C946        C  0.86670576  0.14925282  0.67183540    -0.25400
H947        H  0.82494872  0.16332087  0.73893841     0.08500
H948        H  0.87235643  0.16759360  0.71503196     0.12100
H949        H  0.75126835  0.11807895  0.68448079     0.12000
H950        H  0.77178091  0.10922352  0.64820442     0.11800
H951        H  0.81978466  0.11599121  0.62382975     0.12300
H952        H  0.89319598  0.16049600  0.67846430     0.14300
C953        C  0.62374225  0.81258183  0.81268887    -0.05800
C954        C  0.64260261  0.79757482  0.80292865    -0.05700
C955        C  0.66947526  0.79578817  0.81475672    -0.23900
C956        C  0.67801316  0.80890443  0.83661918     0.18400
C957        C  0.65975822  0.82470629  0.84640761     0.15600
C958        C  0.63299079  0.82658122  0.83441092    -0.18900
C959        C  0.66806581  0.83777674  0.86823562    -0.20700
C960        C  0.69362413  0.83451760  0.88049388    -0.13300
C961        C  0.71172111  0.81836267  0.87118054     0.03400
C962        C  0.70403119  0.80601880  0.84899669    -0.25400
H963        H  0.63610362  0.78653650  0.78629675     0.08500
H964        H  0.68320268  0.78362411  0.80692064     0.12100
H965        H  0.61890249  0.83840166  0.84222562     0.12000
H966        H  0.65446523  0.85016531  0.87596010     0.11800
H967        H  0.69920290  0.84468892  0.89736330     0.12300
H968        H  0.71778920  0.79361979  0.84149551     0.14300
C969        C  0.63324691  0.03678780  0.74906191    -0.05800
C970        C  0.61738208  0.01422971  0.73091794    -0.05700
C971        C  0.59697853  0.97780043  0.73442142    -0.23900
C972        C  0.59194494  0.96364221  0.75612917     0.18400
C973        C  0.60603854  0.98648627  0.77455641     0.15600
C974        C  0.62667408  0.02280697  0.77086937    -0.18900
C975        C  0.60052753  0.97250876  0.79629396    -0.20700
C976        C  0.58268330  0.93602303  0.79971715    -0.13300
C977        C  0.57050897  0.91308051  0.78144564     0.03400
C978        C  0.57443059  0.92707101  0.75970516    -0.25400
H979        H  0.62226449  0.02453862  0.71404584     0.08500
H980        H  0.58607070  0.96061386  0.72012006     0.12100
H981        H  0.63872008  0.04023616  0.78496537     0.12000
H982        H  0.61100749  0.98978579  0.81059339     0.11800
H983        H  0.58011404  0.92575580  0.81650774     0.12300
H984        H  0.56487891  0.90940198  0.74551922     0.14300
C985        C  0.25903697  0.73027524  0.55788146    -0.05800
C986        C  0.26476657  0.71681651  0.53794353    -0.05700
C987        C  0.24372625  0.68128405  0.53238490    -0.23900
C988        C  0.21607133  0.65868227  0.54643443     0.18400
C989        C  0.20768725  0.67290515  0.56517998     0.15600
C990        C  0.22947136  0.70848561  0.57096312    -0.18900
C991        C  0.17926213  0.65065386  0.57878309    -0.20700
C992        C  0.16176625  0.61434174  0.57524827    -0.13300
C993        C  0.17270035  0.59946334  0.55839114     0.03400
C994        C  0.19870479  0.62187029  0.54324315    -0.25400
H995        H  0.28736776  0.73307448  0.52755832     0.08500
H996        H  0.25028074  0.67112346  0.51774391     0.12100
H997        H  0.22464800  0.71865788  0.58626976     0.12000
H998        H  0.17196786  0.66103214  0.59299640     0.11800
H999        H  0.14174524  0.59754361  0.58707019     0.12300
H1000       H  0.20769021  0.61064585  0.53040863     0.14300
C1001       C  0.48928967  0.81162256  0.70390700    -0.05800
C1002       C  0.47158205  0.78272862  0.68960376    -0.05700
C1003       C  0.45774002  0.78629035  0.66949064    -0.23900
C1004       C  0.46060040  0.81865751  0.66370716     0.18400
C1005       C  0.48015907  0.84854159  0.67734009     0.15600
C1006       C  0.49512513  0.84497437  0.69731885    -0.18900
C1007       C  0.48220759  0.88068587  0.67146082    -0.20700
C1008       C  0.46268428  0.88236208  0.65336763    -0.13300
C1009       C  0.44123519  0.85198709  0.64090192     0.03400
C1010       C  0.44185134  0.82077947  0.64544624    -0.25400
H1011       H  0.46750443  0.75700813  0.69439894     0.08500
H1012       H  0.44314917  0.76329859  0.65907680     0.12100
H1013       H  0.50889774  0.86727073  0.70840140     0.12000
H1014       H  0.49723871  0.90394116  0.68156569     0.11800
H1015       H  0.46255965  0.90672343  0.65005229     0.12300
H1016       H  0.42564210  0.79734557  0.63570623     0.14300
C1017       C  0.12259544  0.06900125  0.64252264    -0.05800
C1018       C  0.09942735  0.06336214  0.66023996    -0.05700
C1019       C  0.07716047  0.07810667  0.65960153    -0.23900
C1020       C  0.07685345  0.09739876  0.64080256     0.18400
C1021       C  0.10134202  0.10448495  0.62344966     0.15600
C1022       C  0.12475786  0.09125328  0.62484844    -0.18900
C1023       C  0.09999212  0.12196662  0.60408100    -0.20700
C1024       C  0.07320161  0.13043856  0.60128170    -0.13300
C1025       C  0.04800745  0.12264398  0.61810809     0.03400
C1026       C  0.05085244  0.10733159  0.63823490    -0.25400
H1027       H  0.09665687  0.04547586  0.67365073     0.08500
H1028       H  0.05840573  0.07223919  0.67301721     0.12100
H1029       H  0.14222636  0.09522323  0.61096010     0.12000
H1030       H  0.11853720  0.12742153  0.59058516     0.11800
H1031       H  0.07157028  0.14218632  0.58568728     0.12300
H1032       H  0.03121026  0.10065645  0.65119480     0.14300
C1033       C  0.29109154  0.89198063  0.57577575    -0.05800
C1034       C  0.28401905  0.90958141  0.55868638    -0.05700
C1035       C  0.26538253  0.92739359  0.56344868    -0.23900
C1036       C  0.25415061  0.92809271  0.58538532     0.18400
C1037       C  0.25880414  0.90814463  0.60225388     0.15600
C1038       C  0.27680152  0.88983984  0.59721958    -0.18900
C1039       C  0.24764077  0.90888871  0.62419720    -0.20700
C1040       C  0.23409738  0.93114448  0.62972387    -0.13300
C1041       C  0.23177876  0.95293040  0.61336836     0.03400
C1042       C  0.24047504  0.95014610  0.59106017    -0.25400
H1043       H  0.29504598  0.91172505  0.54219050     0.08500
H1044       H  0.26162209  0.94235485  0.55030295     0.12100
H1045       H  0.28222446  0.87615313  0.61047574     0.12000
H1046       H  0.25081423  0.89342266  0.63726068     0.11800
H1047       H  0.22717903  0.93265991  0.64688465     0.12300
H1048       H  0.23800529  0.96639328  0.57822896     0.14300
C1049       C  0.17324580  0.98047822  0.53427672    -0.05800
C1050       C  0.16258857  0.99532549  0.51723394    -0.05700
C1051       C  0.14988079  0.97777435  0.49707526    -0.23900
C1052       C  0.14678310  0.94459761  0.49391559     0.18400
C1053       C  0.15970608  0.93044457  0.51035919     0.15600
C1054       C  0.17349225  0.94886451  0.53044874    -0.18900
C1055       C  0.15591790  0.89689829  0.50713447    -0.20700
C1056       C  0.13673010  0.87640849  0.48888464    -0.13300
C1057       C  0.12127186  0.88928165  0.47358006     0.03400
C1058       C  0.12817559  0.92416219  0.47551748    -0.25400
H1059       H  0.16234420  0.01975267  0.52003523     0.08500
H1060       H  0.14035294  0.98907754  0.48458305     0.12100
H1061       H  0.18138825  0.93725146  0.54371907     0.12000
H1062       H  0.16585304  0.88568025  0.51941096     0.11800
H1063       H  0.13177144  0.84957477  0.48770394     0.12300
H1064       H  0.11664646  0.93443198  0.46366345     0.14300
C1065       C  0.59919791  0.16519991  0.73908841    -0.05800
C1066       C  0.57375009  0.15770625  0.75570919    -0.05700
C1067       C  0.54779406  0.16732105  0.75286465    -0.23900
C1068       C  0.54754118  0.18564957  0.73364771     0.18400
C1069       C  0.57176078  0.19173764  0.71626678     0.15600
C1070       C  0.59694501  0.18067763  0.71888477    -0.18900
C1071       C  0.57230758  0.21146027  0.69747820    -0.20700
C1072       C  0.55148283  0.22781954  0.69696040    -0.13300
C1073       C  0.52901941  0.22355286  0.71483957     0.03400
C1074       C  0.52574871  0.20083878  0.73250132    -0.25400
H1075       H  0.57477579  0.14562481  0.77131553     0.08500
H1076       H  0.52923549  0.16226091  0.76626625     0.12100
H1077       H  0.61663767  0.18691023  0.70603322     0.12000
H1078       H  0.59073228  0.21643882  0.68400184     0.11800
H1079       H  0.55494249  0.24589271  0.68351210     0.12300
H1080       H  0.50893192  0.19811828  0.74655958     0.14300
C1081       C  0.37089520  0.18597160  0.70894859    -0.05800
C1082       C  0.34494580  0.15640818  0.72043590    -0.05700
C1083       C  0.31641794  0.12948329  0.70897770    -0.23900
C1084       C  0.31328277  0.13142285  0.68575161     0.18400
C1085       C  0.33920589  0.16092651  0.67401520     0.15600
C1086       C  0.36770396  0.18791935  0.68563065    -0.18900
C1087       C  0.33622648  0.16296824  0.65082126    -0.20700
C1088       C  0.30795078  0.13604054  0.63930545    -0.13300
C1089       C  0.28195275  0.10633897  0.65067497     0.03400
C1090       C  0.28482634  0.10435274  0.67404500    -0.25400
H1091       H  0.34653971  0.15418082  0.73835666     0.08500
H1092       H  0.29679872  0.10710493  0.71830517     0.12100
H1093       H  0.38744433  0.21043740  0.67644854     0.12000
H1094       H  0.35586755  0.18539452  0.64153506     0.11800
H1095       H  0.30663237  0.13841561  0.62137619     0.12300
H1096       H  0.26506063  0.08172934  0.68313000     0.14300
C1097       C  0.48513521  0.32022715  0.82111000    -0.05800
C1098       C  0.48961270  0.30217523  0.83906558    -0.05700
C1099       C  0.49978473  0.31816159  0.85985387    -0.23900
C1100       C  0.50605884  0.35259999  0.86270718     0.18400
C1101       C  0.49920768  0.37001784  0.84502056     0.15600
C1102       C  0.48845540  0.35349213  0.82420721    -0.18900
C1103       C  0.50597767  0.40464130  0.84796772    -0.20700
C1104       C  0.52292268  0.42304787  0.86729658    -0.13300
C1105       C  0.53291901  0.40685963  0.88393194     0.03400
C1106       C  0.52212593  0.37091437  0.88221654    -0.25400
H1107       H  0.48702401  0.27637850  0.83664823     0.08500
H1108       H  0.50476644  0.30444988  0.87325902     0.12100
H1109       H  0.48499621  0.36723774  0.81016133     0.12000
H1110       H  0.50043922  0.41821513  0.83474399     0.11800
H1111       H  0.53068406  0.45070595  0.86836701     0.12300
H1112       H  0.52917368  0.35804163  0.89515031     0.14300
C1113       C  0.39020131  0.56141859  0.80902986    -0.05800
C1114       C  0.38065236  0.57379391  0.82800745    -0.05700
C1115       C  0.40043093  0.60879308  0.83467775    -0.23900
C1116       C  0.43062781  0.63198662  0.82278427     0.18400
C1117       C  0.44250840  0.61907452  0.80503833     0.15600
C1118       C  0.42189131  0.58390406  0.79799723    -0.18900
C1119       C  0.47346441  0.64227873  0.79369196    -0.20700
C1120       C  0.49020442  0.67834323  0.79828775    -0.13300
C1121       C  0.47600204  0.69174028  0.81402238     0.03400
C1122       C  0.44730813  0.66830318  0.82705963    -0.25400
H1123       H  0.35636392  0.55699994  0.83682328     0.08500
H1124       H  0.39116976  0.61807958  0.84848463     0.12100
H1125       H  0.42961961  0.57453691  0.78347354     0.12000
H1126       H  0.48338014  0.63293004  0.78028374     0.11800
H1127       H  0.51203801  0.69615245  0.78783861     0.12300
H1128       H  0.43585773  0.67859482  0.83890032     0.14300
C1129       C  0.41614279  0.33629626  0.74397820    -0.05800
C1130       C  0.40059083  0.34611451  0.72698022    -0.05700
C1131       C  0.38240037  0.36422574  0.73216876    -0.23900
C1132       C  0.37980015  0.37302221  0.75441424     0.18400
C1133       C  0.39737729  0.36536651  0.77146755     0.15600
C1134       C  0.41529610  0.34688940  0.76613669    -0.18900
C1135       C  0.39539641  0.37500666  0.79363474    -0.20700
C1136       C  0.37469330  0.39050774  0.79901046    -0.13300
C1137       C  0.35531105  0.39608605  0.78234746     0.03400
C1138       C  0.35880842  0.38809204  0.75999173    -0.25400
H1139       H  0.40076876  0.33802063  0.70992530     0.08500
H1140       H  0.36931928  0.37028062  0.71888339     0.12100
H1141       H  0.42742998  0.33946415  0.77934537     0.12000
H1142       H  0.40909763  0.36969711  0.80688548     0.11800
H1143       H  0.37259091  0.39665886  0.81625201     0.12300
H1144       H  0.34444694  0.39292007  0.74692871     0.14300
C1145       C  0.21131388  0.45621869  0.72723001    -0.05800
C1146       C  0.21365590  0.48952789  0.72603790    -0.05700
C1147       C  0.19353580  0.49629015  0.71089634    -0.23900
C1148       C  0.17127505  0.47018877  0.69602976     0.18400
C1149       C  0.16700436  0.43595089  0.69753061     0.15600
C1150       C  0.18669018  0.42890670  0.71350407    -0.18900
C1151       C  0.14495042  0.41032020  0.68202490    -0.20700
C1152       C  0.12981750  0.41944105  0.66424803    -0.13300
C1153       C  0.13630557  0.45419172  0.66195114     0.03400
C1154       C  0.15548408  0.47879413  0.67860601    -0.25400
H1155       H  0.23231605  0.51110329  0.73625808     0.08500
H1156       H  0.19693293  0.52260970  0.70998574     0.12100
H1157       H  0.18471762  0.40316400  0.71412293     0.12000
H1158       H  0.14102435  0.38381913  0.68290810     0.11800
H1159       H  0.11509536  0.40005125  0.65156889     0.12300
H1160       H  0.16028819  0.50559789  0.67707104     0.14300
C1161       C  0.70824002  0.44559147  0.96592339    -0.05800
C1162       C  0.69900997  0.42112179  0.98348513    -0.05700
C1163       C  0.72079151  0.40722315  0.98935954    -0.23900
C1164       C  0.75265500  0.41804895  0.97810265     0.18400
C1165       C  0.76332076  0.44440595  0.96141238     0.15600
C1166       C  0.74079176  0.45760583  0.95517185    -0.18900
C1167       C  0.79548167  0.45566807  0.95043837    -0.20700
C1168       C  0.81537044  0.43903304  0.95457373    -0.13300
C1169       C  0.80356657  0.41085037  0.96974484     0.03400
C1170       C  0.77280214  0.40132634  0.98210841    -0.25400
H1171       H  0.67397513  0.41136743  0.99194264     0.08500
H1172       H  0.71217410  0.38719184  0.00227057     0.12100
H1173       H  0.74818056  0.47658628  0.94167369     0.12000
H1174       H  0.80427450  0.47595979  0.93769217     0.11800
H1175       H  0.83839247  0.44600652  0.94437453     0.12300
H1176       H  0.76291789  0.37885749  0.99330920     0.14300
C1177       C  0.79430944  0.23187695  0.80534280    -0.05800
C1178       C  0.80695508  0.26807633  0.80225733    -0.05700
C1179       C  0.82786564  0.29211557  0.81842249    -0.23900
C1180       C  0.83517940  0.28005462  0.83828298     0.18400
C1181       C  0.82497701  0.24402577  0.84082785     0.15600
C1182       C  0.80557516  0.22025712  0.82389416    -0.18900
C1183       C  0.83075757  0.23182745  0.86125388    -0.20700
C1184       C  0.84304674  0.25438514  0.87961891    -0.13300
C1185       C  0.85101187  0.28948392  0.87733665     0.03400
C1186       C  0.84894282  0.30270305  0.85646073    -0.25400
H1187       H  0.79861216  0.27763928  0.78812753     0.08500
H1188       H  0.83565338  0.31965548  0.81623023     0.12100
H1189       H  0.79572451  0.19235181  0.82645699     0.12000
H1190       H  0.82305884  0.20433018  0.86351566     0.11800
H1191       H  0.84390797  0.24382976  0.89581831     0.12300
H1192       H  0.85477594  0.32984386  0.85496436     0.14300
C1193       C  0.21057824  0.35267163  0.82267215    -0.05800
C1194       C  0.22344423  0.33836978  0.83885949    -0.05700
C1195       C  0.20101813  0.31424706  0.85465760    -0.23900
C1196       C  0.16520588  0.30413323  0.85475787     0.18400
C1197       C  0.15179418  0.31788697  0.83833488     0.15600
C1198       C  0.17452087  0.34189078  0.82224552    -0.18900
C1199       C  0.11592145  0.30764447  0.83845024    -0.20700
C1200       C  0.09351844  0.28360768  0.85435068    -0.13300
C1201       C  0.10653972  0.26967777  0.87066767     0.03400
C1202       C  0.14259023  0.28038769  0.87094566    -0.25400
H1203       H  0.25120810  0.34630853  0.83948102     0.08500
H1204       H  0.21178585  0.30390156  0.86696888     0.12100
H1205       H  0.16448871  0.35311321  0.81002466     0.12000
H1206       H  0.10511958  0.31793719  0.82613109     0.11800
H1207       H  0.06576900  0.27571602  0.85382951     0.12300
H1208       H  0.15277823  0.26946294  0.88327354     0.14300
C1209       C  0.86624700  0.93110438  0.87770705    -0.05800
C1210       C  0.89338783  0.94724645  0.86197342    -0.05700
C1211       C  0.91434798  0.98400645  0.86145267    -0.23900
C1212       C  0.90919247  0.00485763  0.87725130     0.18400
C1213       C  0.88077185  0.98876352  0.89240645     0.15600
C1214       C  0.85895758  0.95212845  0.89207990    -0.18900
C1215       C  0.87661527  0.00907391  0.90902000    -0.20700
C1216       C  0.90190236  0.04445239  0.91172063    -0.13300
C1217       C  0.93081642  0.06044763  0.89722912     0.03400
C1218       C  0.93355137  0.04091295  0.87940783    -0.25400
H1219       H  0.90005402  0.93137319  0.85129547     0.08500
H1220       H  0.93616597  0.99586926  0.84982545     0.12100
H1221       H  0.83866895  0.93958428  0.90469924     0.12000
H1222       H  0.85491193  0.99714568  0.92071342     0.11800
H1223       H  0.89944933  0.05910765  0.92552173     0.12300
H1224       H  0.95624777  0.05300282  0.86843760     0.14300
C1225       C  0.90468823  0.28138793  0.95926945    -0.05800
C1226       C  0.92787900  0.27940712  0.97465721    -0.05700
C1227       C  0.94648272  0.26188363  0.96907444    -0.23900
C1228       C  0.94268160  0.24679610  0.94781943     0.18400
C1229       C  0.91771469  0.24666827  0.93275292     0.15600
C1230       C  0.89869254  0.26374469  0.93870102    -0.18900
C1231       C  0.91403489  0.23162787  0.91146710    -0.20700
C1232       C  0.93619270  0.21849347  0.90474687    -0.13300
C1233       C  0.96257610  0.22059769  0.91912082     0.03400
C1234       C  0.96487091  0.23377463  0.94090452    -0.25400
H1235       H  0.93357253  0.29363306  0.99027512     0.08500
H1236       H  0.96544079  0.26203124  0.98085069     0.12100
H1237       H  0.88154732  0.26610951  0.92657625     0.12000
H1238       H  0.89485397  0.23110569  0.89974372     0.11800
H1239       H  0.93372784  0.20812658  0.88803197     0.12300
H1240       H  0.98471555  0.23483109  0.95230178     0.14300
C1241       C  0.12514873  0.17760168  0.96160541    -0.05800
C1242       C  0.13070749  0.14841678  0.96164082    -0.05700
C1243       C  0.14654243  0.14182901  0.97987726    -0.23900
C1244       C  0.15697117  0.16425792  0.99836824     0.18400
C1245       C  0.15511089  0.19571519  0.99749091     0.15600
C1246       C  0.13977829  0.20252834  0.97887145    -0.18900
C1247       C  0.16563073  0.21812819  0.01610027    -0.20700
C1248       C  0.17508479  0.20800438  0.03597239    -0.13300
C1249       C  0.17426103  0.17553828  0.03731071     0.03400
C1250       C  0.16662431  0.15442948  0.01829354    -0.25400
H1251       H  0.12024764  0.12908200  0.94839703     0.08500
H1252       H  0.14838557  0.11792903  0.98015373     0.12100
H1253       H  0.13588350  0.22524445  0.97902912     0.12000
H1254       H  0.16465703  0.24248143  0.01568229     0.11800
H1255       H  0.18102591  0.22448187  0.05059939     0.12300
H1256       H  0.16623413  0.12939819  0.01943160     0.14300
C1257       C  0.44751725  0.71762134  0.30526543    -0.05800
C1258       C  0.46457688  0.75443363  0.30725014    -0.05700
C1259       C  0.44523871  0.77240944  0.30595775    -0.23900
C1260       C  0.40868162  0.75382728  0.30212224     0.18400
C1261       C  0.39127694  0.71659510  0.30179001     0.15600
C1262       C  0.41062825  0.69886751  0.30388449    -0.18900
C1263       C  0.35515063  0.69756451  0.29750262    -0.20700
C1264       C  0.33670068  0.71508097  0.29217135    -0.13300
C1265       C  0.35366963  0.75210548  0.29127011     0.03400
C1266       C  0.38955435  0.77152690  0.29720927    -0.25400
H1267       H  0.49306033  0.76945977  0.30771953     0.08500
H1268       H  0.45920176  0.80091500  0.30635339     0.12100
H1269       H  0.39738215  0.67048542  0.30186539     0.12000
H1270       H  0.34137108  0.66903041  0.29737438     0.11800
H1271       H  0.30887782  0.69940587  0.28842643     0.12300
H1272       H  0.40284654  0.80003420  0.29683905     0.14300
C1273       C  0.52307323  0.64429356  0.19471240    -0.05800
C1274       C  0.52337990  0.61235924  0.19332144    -0.05700
C1275       C  0.51099106  0.59168747  0.17407068    -0.23900
C1276       C  0.49776249  0.60257133  0.15615888     0.18400
C1277       C  0.50063273  0.63627038  0.15666092     0.15600
C1278       C  0.51359107  0.65704421  0.17588136    -0.18900
C1279       C  0.48738513  0.64718612  0.13884837    -0.20700
C1280       C  0.46778567  0.62348982  0.12200237    -0.13300
C1281       C  0.46137794  0.58856679  0.12262181     0.03400
C1282       C  0.47866197  0.57913573  0.13890193    -0.25400
H1283       H  0.53022199  0.60196348  0.20771341     0.08500
H1284       H  0.50931281  0.56604208  0.17388300     0.12100
H1285       H  0.51341297  0.68180644  0.17695229     0.12000
H1286       H  0.48997158  0.67322573  0.13877977     0.11800
H1287       H  0.45547382  0.63178713  0.10945514     0.12300
H1288       H  0.47445199  0.55247693  0.13945706     0.14300
C1289       C  0.51817371  0.26165889  0.20609270    -0.05800
C1290       C  0.50083497  0.27846676  0.21545491    -0.05700
C1291       C  0.51878097  0.31493194  0.21877316    -0.23900
C1292       C  0.55437881  0.33500573  0.21280106     0.18400
C1293       C  0.57073977  0.31865282  0.20117645     0.15600
C1294       C  0.55241920  0.28213145  0.19775443    -0.18900
C1295       C  0.60612902  0.33851919  0.19490722    -0.20700
C1296       C  0.62569888  0.37373381  0.20117744    -0.13300
C1297       C  0.61048094  0.38955354  0.21413295     0.03400
C1298       C  0.57453777  0.37040609  0.21950689    -0.25400
H1299       H  0.47475161  0.26297199  0.22253767     0.08500
H1300       H  0.50562238  0.32695007  0.22747778     0.12100
H1301       H  0.56615668  0.26918208  0.19100067     0.12000
H1302       H  0.61903679  0.32649160  0.18591796     0.11800
H1303       H  0.65340444  0.38824222  0.19685945     0.12300
H1304       H  0.56268140  0.38267603  0.22933806     0.14300
C1305       C  0.62361968  0.54781435  0.23452655    -0.05800
C1306       C  0.61284313  0.56283816  0.21770935    -0.05700
C1307       C  0.59443015  0.58063688  0.22327689    -0.23900
C1308       C  0.58673022  0.58366743  0.24573626     0.18400
C1309       C  0.59527199  0.56645353  0.26255873     0.15600
C1310       C  0.61366740  0.54872749  0.25679493    -0.18900
C1311       C  0.58742487  0.56930970  0.28500931    -0.20700
C1312       C  0.57281379  0.59056268  0.29087307    -0.13300
C1313       C  0.56630118  0.60949667  0.27439281     0.03400
C1314       C  0.57263714  0.60531168  0.25182490    -0.25400
H1315       H  0.62089286  0.56309134  0.20057999     0.08500
H1316       H  0.58783473  0.59356367  0.21016891     0.12100
H1317       H  0.62278249  0.53798699  0.26984747     0.12000
H1318       H  0.59374537  0.55612283  0.29809072     0.11800
H1319       H  0.56835833  0.59365621  0.30830388     0.12300
H1320       H  0.56796524  0.62016891  0.23909518     0.14300
C1321       C  0.77972334  0.51747502  0.30060481    -0.05800
C1322       C  0.79367805  0.54615629  0.31544747    -0.05700
C1323       C  0.81176907  0.54576449  0.33470077    -0.23900
C1324       C  0.81593431  0.51653766  0.33956219     0.18400
C1325       C  0.80417745  0.48875993  0.32390972     0.15600
C1326       C  0.78674332  0.48969548  0.30443711    -0.18900
C1327       C  0.80765037  0.45918683  0.32873267    -0.20700
C1328       C  0.82000013  0.45582920  0.34955825    -0.13300
C1329       C  0.82996165  0.48231760  0.36568562     0.03400
C1330       C  0.82939020  0.51340618  0.36034642    -0.25400
H1331       H  0.78874737  0.56795105  0.31292849     0.08500
H1332       H  0.82078668  0.56743766  0.34636570     0.12100
H1333       H  0.77646011  0.46753377  0.29306556     0.12000
H1334       H  0.79902233  0.43778702  0.31688049     0.11800
H1335       H  0.82054336  0.43181521  0.35345305     0.12300
H1336       H  0.83689102  0.53378317  0.37285570     0.14300
C1337       C  0.88243055  0.70315561  0.15993953    -0.05800
C1338       C  0.89422524  0.69849928  0.18098302    -0.05700
C1339       C  0.87091092  0.67397548  0.19641327    -0.23900
C1340       C  0.83508983  0.65351642  0.19128262     0.18400
C1341       C  0.82284875  0.65825268  0.17033010     0.15600
C1342       C  0.84648274  0.68284297  0.15480929    -0.18900
C1343       C  0.78712509  0.63808794  0.16512587    -0.20700
C1344       C  0.76393515  0.61288942  0.18014264    -0.13300
C1345       C  0.77567465  0.60705085  0.20086348     0.03400
C1346       C  0.81142004  0.62805820  0.20651839    -0.25400
H1347       H  0.92174770  0.71370800  0.18554172     0.08500
H1348       H  0.88097763  0.67091565  0.21232172     0.12100
H1349       H  0.83686158  0.68620755  0.13880458     0.12000
H1350       H  0.77712013  0.64144756  0.14927236     0.11800
H1351       H  0.73655059  0.59751512  0.17529574     0.12300
H1352       H  0.82095250  0.62391792  0.22233596     0.14300
C1353       C  0.13026315  0.03513952  0.14719437    -0.05800
C1354       C  0.10726444  0.01889165  0.16511741    -0.05700
C1355       C  0.08809009  0.98208975  0.16648722    -0.23900
C1356       C  0.09089340  0.96143518  0.14947725     0.18400
C1357       C  0.11617729  0.97781567  0.13240431     0.15600
C1358       C  0.13639460  0.01454641  0.13179407    -0.18900
C1359       C  0.11816151  0.95755724  0.11490700    -0.20700
C1360       C  0.09270748  0.92216908  0.11289162    -0.13300
C1361       C  0.06598789  0.90616493  0.12893704     0.03400
C1362       C  0.06658042  0.92534788  0.14796203    -0.25400
H1363       H  0.10193931  0.03449057  0.17689777     0.08500
H1364       H  0.06892461  0.96992533  0.17974782     0.12100
H1365       H  0.15396597  0.02727487  0.11781734     0.12000
H1366       H  0.13789098  0.96954923  0.10196759     0.11800
H1367       H  0.09294702  0.90770532  0.09828186     0.12300
H1368       H  0.04588808  0.91319139  0.16036273     0.14300
C1369       C  0.87129625  0.78786504  0.06098878    -0.05800
C1370       C  0.86448666  0.81620262  0.06154304    -0.05700
C1371       C  0.84669103  0.82180996  0.04407629    -0.23900
C1372       C  0.83582693  0.79943847  0.02556206     0.18400
C1373       C  0.83981626  0.76913788  0.02558724     0.15600
C1374       C  0.85707298  0.76318900  0.04356028    -0.18900
C1375       C  0.82908044  0.74701802  0.00681359    -0.20700
C1376       C  0.81698867  0.75627896  0.98765787    -0.13300
C1377       C  0.81541872  0.78761715  0.98715772     0.03400
C1378       C  0.82359532  0.80840063  0.00636838    -0.25400
H1379       H  0.87513145  0.83551511  0.07478242     0.08500
H1380       H  0.84347925  0.84491596  0.04440245     0.12100
H1381       H  0.86242060  0.74142296  0.04286283     0.12000
H1382       H  0.83179339  0.72362961  0.00651553     0.11800
H1383       H  0.81098702  0.74018752  0.97282145     0.12300
H1384       H  0.82248890  0.83270681  0.00585889     0.14300
C1385       C  0.27077637  0.51254145  0.05087678    -0.05800
C1386       C  0.27646406  0.53453514  0.03232918    -0.05700
C1387       C  0.25467439  0.54926380  0.02850687    -0.23900
C1388       C  0.22663726  0.54184604  0.04305915     0.18400
C1389       C  0.21883293  0.51695882  0.06042278     0.15600
C1390       C  0.24101410  0.50263416  0.06426679    -0.18900
C1391       C  0.19071147  0.50899883  0.07487423    -0.20700
C1392       C  0.17263242  0.52785078  0.07354744    -0.13300
C1393       C  0.18212443  0.55482639  0.05773079     0.03400
C1394       C  0.20814646  0.56080886  0.04180279    -0.25400
H1395       H  0.29946072  0.54264676  0.02188113     0.08500
H1396       H  0.26094842  0.56792942  0.01496283     0.12100
H1397       H  0.23653135  0.48565714  0.07858030     0.12000
H1398       H  0.18415084  0.48979564  0.08811988     0.11800
H1399       H  0.15288476  0.52322068  0.08606731     0.12300
H1400       H  0.21602049  0.58207119  0.02984311     0.14300
C1401       C  0.02721560  0.74603527  0.11207540    -0.05800
C1402       C  0.05429763  0.74857750  0.12593589    -0.05700
C1403       C  0.07639269  0.73568076  0.11865116    -0.23900
C1404       C  0.07181058  0.72048389  0.09733873     0.18400
C1405       C  0.04603673  0.71997774  0.08282917     0.15600
C1406       C  0.02405455  0.73276266  0.09028727    -0.18900
C1407       C  0.04106817  0.70460117  0.06160903    -0.20700
C1408       C  0.05925970  0.68695340  0.05558818    -0.13300
C1409       C  0.08328818  0.68539346  0.07042899     0.03400
C1410       C  0.09065038  0.70350979  0.09087271    -0.25400
H1411       H  0.05738880  0.75910844  0.14265493     0.08500
H1412       H  0.09618559  0.73647513  0.12993128     0.12100
H1413       H  0.00362034  0.73129773  0.07932317     0.12000
H1414       H  0.02147171  0.70419801  0.05030269     0.11800
H1415       H  0.05265564  0.67231776  0.04008909     0.12300
H1416       H  0.10855620  0.70149157  0.10258045     0.14300
C1417       C  0.95556172  0.44091046  0.98295003    -0.05800
C1418       C  0.97993456  0.47155105  0.97160080    -0.05700
C1419       C  0.00503495  0.50076111  0.98344820    -0.23900
C1420       C  0.00617005  0.49982910  0.00683592     0.18400
C1421       C  0.98173042  0.46913670  0.01833176     0.15600
C1422       C  0.95676394  0.43999923  0.00637345    -0.18900
C1423       C  0.98255594  0.46799531  0.04165303    -0.20700
C1424       C  0.00753464  0.49691241  0.05356376    -0.13300
C1425       C  0.03229177  0.52759937  0.04240970     0.03400
C1426       C  0.03132522  0.52891525  0.01894458    -0.25400
H1427       H  0.97953103  0.47301505  0.95356282     0.08500
H1428       H  0.02351431  0.52406929  0.97432410     0.12100
H1429       H  0.93813300  0.41662658  0.01540321     0.12000
H1430       H  0.96393516  0.44466252  0.05070702     0.11800
H1431       H  0.00756974  0.49505832  0.07159391     0.12300
H1432       H  0.05016189  0.55239789  0.01010619     0.14300
C1433       C  0.12380544  0.65785685  0.15746391    -0.05800
C1434       C  0.12256645  0.63875254  0.17661802    -0.05700
C1435       C  0.13104098  0.65501145  0.19738019    -0.23900
C1436       C  0.14211433  0.69094061  0.19903849     0.18400
C1437       C  0.14073614  0.70978322  0.18012354     0.15600
C1438       C  0.13070664  0.69272511  0.15935684    -0.18900
C1439       C  0.15324352  0.74612816  0.18186726    -0.20700
C1440       C  0.17151408  0.76427105  0.20103774    -0.13300
C1441       C  0.17654582  0.74593628  0.21867172     0.03400
C1442       C  0.15883342  0.70908108  0.21845530    -0.25400
H1443       H  0.11692014  0.61169580  0.17527253     0.08500
H1444       H  0.13179190  0.64023556  0.21176422     0.12100
H1445       H  0.13185204  0.70741618  0.14444929     0.12000
H1446       H  0.15200358  0.76095607  0.16767024     0.11800
H1447       H  0.18497666  0.79276851  0.20099948     0.12300
H1448       H  0.16253021  0.69494946  0.23221515     0.14300
C1449       C  0.85559032  0.88293663  0.38084311    -0.05800
C1450       C  0.88165992  0.89466541  0.36425981    -0.05700
C1451       C  0.90462576  0.88065686  0.36302218    -0.23900
C1452       C  0.90252257  0.85571118  0.37885907     0.18400
C1453       C  0.87456264  0.84193321  0.39438899     0.15600
C1454       C  0.85049190  0.85444407  0.39454406    -0.18900
C1455       C  0.87314382  0.81864638  0.41108727    -0.20700
C1456       C  0.90069290  0.81123874  0.41355255    -0.13300
C1457       C  0.92948789  0.82582674  0.39886503     0.03400
C1458       C  0.92941392  0.84670018  0.38080835    -0.25400
H1459       H  0.88637272  0.91674099  0.35368843     0.08500
H1460       H  0.92581634  0.89148127  0.35092306     0.12100
H1461       H  0.83039655  0.84517257  0.40742237     0.12000
H1462       H  0.85192170  0.80804728  0.42318620     0.11800
H1463       H  0.90018616  0.79513789  0.42750948     0.12300
H1464       H  0.95180261  0.85851944  0.36960033     0.14300
C1465       C  0.70187617  0.86071160  0.36369430    -0.05800
C1466       C  0.70546901  0.87049524  0.34098303    -0.05700
C1467       C  0.68224683  0.84783128  0.32490699    -0.23900
C1468       C  0.65497229  0.81460202  0.33108969     0.18400
C1469       C  0.65039451  0.80475256  0.35390708     0.15600
C1470       C  0.67361571  0.82797303  0.37011724    -0.18900
C1471       C  0.62314239  0.77147874  0.36005428    -0.20700
C1472       C  0.60126807  0.74794829  0.34379694    -0.13300
C1473       C  0.60593696  0.75706869  0.32095141     0.03400
C1474       C  0.63268015  0.79085210  0.31478083    -0.25400
H1475       H  0.72660384  0.89579645  0.33552162     0.08500
H1476       H  0.68606222  0.85606330  0.30758234     0.12100
H1477       H  0.67040459  0.82011234  0.38751201     0.12000
H1478       H  0.61902854  0.76342112  0.37741056     0.11800
H1479       H  0.58072462  0.72230831  0.34921649     0.12300
H1480       H  0.63651039  0.79848144  0.29734002     0.14300
C1481       C  0.80519974  0.97843196  0.48656206    -0.05800
C1482       C  0.80484876  0.95993270  0.50582036    -0.05700
C1483       C  0.81596739  0.97738148  0.52621834    -0.23900
C1484       C  0.82739619  0.01350102  0.52751289     0.18400
C1485       C  0.82499080  0.03155164  0.50850302     0.15600
C1486       C  0.81404981  0.01387462  0.48804246    -0.18900
C1487       C  0.83600265  0.06754724  0.50991268    -0.20700
C1488       C  0.85240733  0.08619944  0.52927555    -0.13300
C1489       C  0.85814348  0.06911230  0.54741328     0.03400
C1490       C  0.84377906  0.03239096  0.54690377    -0.25400
H1491       H  0.79816082  0.93253844  0.50475992     0.08500
H1492       H  0.81736422  0.96309699  0.54065603     0.12100
H1493       H  0.81424481  0.02802374  0.47307823     0.12000
H1494       H  0.83388150  0.08166460  0.49561569     0.11800
H1495       H  0.86322933  0.11449261  0.52930291     0.12300
H1496       H  0.84779040  0.01897262  0.56092515     0.14300
C1497       C  0.44574475  0.93930522  0.54210432    -0.05800
C1498       C  0.47621031  0.96540694  0.55267344    -0.05700
C1499       C  0.50398596  0.99125711  0.54014170    -0.23900
C1500       C  0.50176695  0.99174477  0.51677586     0.18400
C1501       C  0.47119082  0.96599794  0.50592165     0.15600
C1502       C  0.44349803  0.93986794  0.51861366    -0.18900
C1503       C  0.46885836  0.96687155  0.48255400    -0.20700
C1504       C  0.49661720  0.99293329  0.47003868    -0.13300
C1505       C  0.52738893  0.01844708  0.48062183     0.03400
C1506       C  0.52962010  0.01758980  0.50410690    -0.25400
H1507       H  0.47876840  0.96563875  0.57066828     0.08500
H1508       H  0.52723812  0.01087558  0.54874204     0.12100
H1509       H  0.42013340  0.92009131  0.51017975     0.12000
H1510       H  0.44554080  0.94739299  0.47394490     0.11800
H1511       H  0.49410189  0.99294461  0.45205132     0.12300
H1512       H  0.55299344  0.03720525  0.51262056     0.14300
C1513       C  0.80012227  0.35605881  0.47696798    -0.05800
C1514       C  0.81519954  0.34190004  0.46242436    -0.05700
C1515       C  0.79861390  0.30563051  0.45840641    -0.23900
C1516       C  0.76684085  0.28284012  0.46914134     0.18400
C1517       C  0.75377762  0.29647781  0.48575181     0.15600
C1518       C  0.77027808  0.33305370  0.48939049    -0.18900
C1519       C  0.72275628  0.27365081  0.49710662    -0.20700
C1520       C  0.70339036  0.23832639  0.49090032    -0.13300
C1521       C  0.71412152  0.22521920  0.47286690     0.03400
C1522       C  0.74661390  0.24734713  0.46249383    -0.25400
H1523       H  0.83788014  0.35924023  0.45241258     0.08500
H1524       H  0.80943319  0.29575161  0.44587257     0.12100
H1525       H  0.75807870  0.34380557  0.50028285     0.12000
H1526       H  0.71255216  0.28345997  0.51007698     0.11800
H1527       H  0.67845157  0.22186783  0.49914530     0.12300
H1528       H  0.75524854  0.23746111  0.44867245     0.14300
C1529       C  0.74354967  0.00262262  0.40962778    -0.05800
C1530       C  0.73037903  0.01381913  0.39193543    -0.05700
C1531       C  0.71217441  0.03221370  0.39630909    -0.23900
C1532       C  0.70698464  0.03961604  0.41841259     0.18400
C1533       C  0.72221669  0.03052775  0.43620209     0.15600
C1534       C  0.74054067  0.01232959  0.43166080    -0.18900
C1535       C  0.71739763  0.03827006  0.45829245    -0.20700
C1536       C  0.69627235  0.05350179  0.46282094    -0.13300
C1537       C  0.67942163  0.06078791  0.44533378     0.03400
C1538       C  0.68564676  0.05459344  0.42311959    -0.25400
H1539       H  0.73224295  0.00649016  0.37494201     0.08500
H1540       H  0.70089088  0.03936884  0.38247125     0.12100
H1541       H  0.75095750  0.00402502  0.44544492     0.12000
H1542       H  0.72915894  0.03162211  0.47210500     0.11800
H1543       H  0.69190529  0.05819001  0.47996625     0.12300
H1544       H  0.67312856  0.06071862  0.40948291     0.14300
C1545       C  0.53590573  0.12374348  0.39081004    -0.05800
C1546       C  0.53489003  0.15548016  0.39018907    -0.05700
C1547       C  0.51831924  0.16262663  0.37264461    -0.23900
C1548       C  0.50257294  0.13815742  0.35542900     0.18400
C1549       C  0.49989923  0.10458091  0.35715500     0.15600
C1550       C  0.51620156  0.09735299  0.37508973    -0.18900
C1551       C  0.48359770  0.08000705  0.33993080    -0.20700
C1552       C  0.47285892  0.08973491  0.32038758    -0.13300
C1553       C  0.47845483  0.12408091  0.31790897     0.03400
C1554       C  0.49186862  0.14767869  0.33580328    -0.25400
H1555       H  0.54905062  0.17587803  0.40244412     0.08500
H1556       H  0.51983349  0.18814836  0.37180700     0.12100
H1557       H  0.51640621  0.07261652  0.37553438     0.12000
H1558       H  0.48088017  0.05400161  0.34106732     0.11800
H1559       H  0.46223644  0.07120228  0.30672291     0.12300
H1560       H  0.49565230  0.17406024  0.33394746     0.14300
C1561       C  0.37038921  0.76948157  0.04755356    -0.05800
C1562       C  0.35158546  0.74918082  0.02913190    -0.05700
C1563       C  0.31462362  0.73054329  0.02953357    -0.23900
C1564       C  0.29617708  0.73141616  0.04858094     0.18400
C1565       C  0.31510332  0.75314688  0.06672740     0.15600
C1566       C  0.35196689  0.77228914  0.06594530    -0.18900
C1567       C  0.29709286  0.75346112  0.08602885    -0.20700
C1568       C  0.26092701  0.73056284  0.08803492    -0.13300
C1569       C  0.24196242  0.70738377  0.07062659     0.03400
C1570       C  0.25955487  0.70912645  0.05049381    -0.25400
H1571       H  0.36544327  0.74614696  0.01506525     0.08500
H1572       H  0.30057130  0.71394692  0.01548185     0.12100
H1573       H  0.36654007  0.78746547  0.08036939     0.12000
H1574       H  0.31127115  0.77011869  0.10004043     0.11800
H1575       H  0.24804903  0.72993429  0.10361704     0.12300
H1576       H  0.24534136  0.69122432  0.03698427     0.14300
C1577       C  0.42548081  0.59279536  0.03452970    -0.05800
C1578       C  0.45658204  0.60658651  0.04714799    -0.05700
C1579       C  0.47747947  0.64293224  0.04986155    -0.23900
C1580       C  0.46753183  0.66576026  0.03978648     0.18400
C1581       C  0.43895085  0.65207400  0.02460198     0.15600
C1582       C  0.41813068  0.61556205  0.02200616    -0.18900
C1583       C  0.42924322  0.67479912  0.01422456    -0.20700
C1584       C  0.44526853  0.71006512  0.02050049    -0.13300
C1585       C  0.47086928  0.72301866  0.03746654     0.03400
C1586       C  0.48321086  0.70122538  0.04628025    -0.25400
H1587       H  0.46224272  0.58926710  0.05720610     0.08500
H1588       H  0.49954750  0.65290702  0.06131933     0.12100
H1589       H  0.39378373  0.60489028  0.01257017     0.12000
H1590       H  0.40768303  0.66484398  0.00237314     0.11800
H1591       H  0.43533523  0.72640842  0.01347719     0.12300
H1592       H  0.50308418  0.71113656  0.05928016     0.14300
C1593       C  0.54320716  0.77622169  0.21951439    -0.05800
C1594       C  0.52491270  0.79493262  0.22215142    -0.05700
C1595       C  0.52123521  0.81325874  0.20413778    -0.23900
C1596       C  0.53412935  0.81131950  0.18305309     0.18400
C1597       C  0.55458888  0.79445045  0.18070500     0.15600
C1598       C  0.56032514  0.77838994  0.19926233    -0.18900
C1599       C  0.56531188  0.79017859  0.15941465    -0.20700
C1600       C  0.55273559  0.79915688  0.14048290    -0.13300
C1601       C  0.53093636  0.81417019  0.14274282     0.03400
C1602       C  0.52357104  0.82232099  0.16398573    -0.25400
H1603       H  0.51151739  0.79338186  0.23768475     0.08500
H1604       H  0.50555440  0.82611856  0.20620920     0.12100
H1605       H  0.57391834  0.76339155  0.19708544     0.12000
H1606       H  0.58099233  0.77731678  0.15734539     0.11800
H1607       H  0.55877821  0.79309107  0.12409363     0.12300
H1608       H  0.50639766  0.83364001  0.16560927     0.14300
C1609       C  0.39390479  0.80954341  0.13085766    -0.05800
C1610       C  0.36748143  0.77480773  0.13549566    -0.05700
C1611       C  0.34257680  0.76791734  0.15207170    -0.23900
C1612       C  0.34359478  0.79561520  0.16433839     0.18400
C1613       C  0.36819632  0.83081265  0.15875057     0.15600
C1614       C  0.39314313  0.83760124  0.14189559    -0.18900
C1615       C  0.36851121  0.85843032  0.17093815    -0.20700
C1616       C  0.34620621  0.85111421  0.18935618    -0.13300
C1617       C  0.32363117  0.81613996  0.19584481     0.03400
C1618       C  0.32156515  0.78855094  0.18281516    -0.25400
H1619       H  0.36681083  0.75267019  0.12690419     0.08500
H1620       H  0.32342710  0.74083590  0.15589689     0.12100
H1621       H  0.41300741  0.86450507  0.13827146     0.12000
H1622       H  0.38686445  0.88558734  0.16675065     0.11800
H1623       H  0.34785081  0.87269238  0.19917417     0.12300
H1624       H  0.30360688  0.76149609  0.18755906     0.14300
C1625       C  0.93560455  0.07463820  0.13275303    -0.05800
C1626       C  0.94967292  0.09917483  0.11522349    -0.05700
C1627       C  0.98595699  0.11828308  0.11162064    -0.23900
C1628       C  0.00887242  0.11364434  0.12582525     0.18400
C1629       C  0.99515315  0.09205147  0.14502036     0.15600
C1630       C  0.95846119  0.07237846  0.14829491    -0.18900
C1631       C  0.01821952  0.08840150  0.15963623    -0.20700
C1632       C  0.05400675  0.10378913  0.15449894    -0.13300
C1633       C  0.06738530  0.12256866  0.13443261     0.03400
C1634       C  0.04481681  0.12835532  0.12045796    -0.25400
H1635       H  0.93235451  0.10128566  0.10312807     0.08500
H1636       H  0.99588618  0.13513282  0.09703471     0.12100
H1637       H  0.94774956  0.05309858  0.16164813     0.12000
H1638       H  0.00836571  0.07237258  0.17456205     0.11800
H1639       H  0.07081786  0.09890825  0.16556323     0.12300
H1640       H  0.05487959  0.14298002  0.10502648     0.14300
C1641       C  0.91459559  0.85623886  0.14534002    -0.05800
C1642       C  0.92396920  0.88292809  0.16122213    -0.05700
C1643       C  0.90666594  0.90287102  0.16163900    -0.23900
C1644       C  0.88068960  0.89709823  0.14564605     0.18400
C1645       C  0.86989869  0.86891401  0.13046019     0.15600
C1646       C  0.88636329  0.84823700  0.13079013    -0.18900
C1647       C  0.84516639  0.86385488  0.11383599    -0.20700
C1648       C  0.83349549  0.88824545  0.11099513    -0.13300
C1649       C  0.84525687  0.91733885  0.12525679     0.03400
C1650       C  0.86753678  0.92067489  0.14328721    -0.25400
H1651       H  0.94626600  0.89000975  0.17214688     0.08500
H1652       H  0.91536189  0.92441068  0.17337980     0.12100
H1653       H  0.87969920  0.82815546  0.11815418     0.12000
H1654       H  0.83641507  0.84219665  0.10219361     0.11800
H1655       H  0.81624389  0.88510267  0.09711417     0.12300
H1656       H  0.87710373  0.94331785  0.15421228     0.14300
C1657       C  0.71396269  0.94507450  0.10683264    -0.05800
C1658       C  0.69136466  0.91761795  0.12104845    -0.05700
C1659       C  0.65631705  0.89489687  0.11466579    -0.23900
C1660       C  0.64367226  0.89912913  0.09387847     0.18400
C1661       C  0.66705785  0.92496808  0.07883687     0.15600
C1662       C  0.70183940  0.94768226  0.08543865    -0.18900
C1663       C  0.65479869  0.92903109  0.05791119    -0.20700
C1664       C  0.61899665  0.90948422  0.05257470    -0.13300
C1665       C  0.59515720  0.88561498  0.06805141     0.03400
C1666       C  0.60775261  0.87958034  0.08836046    -0.25400
H1667       H  0.70025023  0.91482250  0.13743077     0.08500
H1668       H  0.63878781  0.87485004  0.12628023     0.12100
H1669       H  0.71921218  0.96835090  0.07411940     0.12000
H1670       H  0.67259725  0.94857184  0.04613953     0.11800
H1671       H  0.60961131  0.91469426  0.03704524     0.12300
H1672       H  0.58921899  0.86124022  0.10040430     0.14300
C1673       C  0.99593176  0.15977802  0.99106931    -0.05800
C1674       C  0.01163155  0.15236048  0.00918132    -0.05700
C1675       C  0.99301001  0.13900719  0.02902114    -0.23900
C1676       C  0.95803291  0.13182840  0.03064711     0.18400
C1677       C  0.94277171  0.14118149  0.01288682     0.15600
C1678       C  0.96215929  0.15577680  0.99326890    -0.18900
C1679       C  0.90754514  0.13323566  0.01439099    -0.20700
C1680       C  0.88686062  0.11375279  0.03247744    -0.13300
C1681       C  0.90116306  0.10212440  0.04939003     0.03400
C1682       C  0.93727217  0.11283200  0.04889542    -0.25400
H1683       H  0.03771104  0.15533564  0.00755419     0.08500
H1684       H  0.00516242  0.13221866  0.04253012     0.12100
H1685       H  0.94998634  0.16114442  0.97909479     0.12000
H1686       H  0.89545989  0.14032147  0.00099440     0.11800
H1687       H  0.85910898  0.10584134  0.03244933     0.12300
H1688       H  0.94866089  0.10416084  0.06186828     0.14300
C1689       C  0.79727093  0.90735186  0.96214979    -0.05800
C1690       C  0.82443516  0.94252254  0.96097051    -0.05700
C1691       C  0.82717730  0.96680580  0.97697655    -0.23900
C1692       C  0.80314878  0.95610416  0.99465768     0.18400
C1693       C  0.77390377  0.92167592  0.99500676     0.15600
C1694       C  0.77076022  0.89760500  0.97841615    -0.18900
C1695       C  0.75023354  0.91108842  0.01304625    -0.20700
C1696       C  0.75750688  0.93321117  0.03153400    -0.13300
C1697       C  0.78820951  0.96609475  0.03189552     0.03400
C1698       C  0.80981695  0.97818692  0.01299679    -0.25400
H1699       H  0.84490750  0.95077139  0.94846028     0.08500
H1700       H  0.84946034  0.99324711  0.97637599     0.12100
H1701       H  0.74962788  0.87058528  0.97945073     0.12000
H1702       H  0.72753046  0.88492025  0.01353263     0.11800
H1703       H  0.74072877  0.92364337  0.04613876     0.12300
H1704       H  0.83356306  0.00367539  0.01342396     0.14300
C1705       C  0.27606810  0.51642523  0.30476523    -0.05800
C1706       C  0.29450030  0.53809960  0.32279038    -0.05700
C1707       C  0.33142323  0.55760061  0.32225048    -0.23900
C1708       C  0.35001826  0.55633473  0.30337364     0.18400
C1709       C  0.33147854  0.53330999  0.28567737     0.15600
C1710       C  0.29480247  0.51294456  0.28679782    -0.18900
C1711       C  0.34949974  0.53308532  0.26632621    -0.20700
C1712       C  0.38533672  0.55711137  0.26387105    -0.13300
C1713       C  0.40392744  0.58090468  0.28101986     0.03400
C1714       C  0.38633642  0.57943268  0.30112128    -0.25400
H1715       H  0.28037333  0.54167984  0.33648528     0.08500
H1716       H  0.34523949  0.57529302  0.33591612     0.12100
H1717       H  0.28046588  0.49663306  0.27269030     0.12000
H1718       H  0.33549250  0.51559375  0.25260949     0.11800
H1719       H  0.39829938  0.55781478  0.24830995     0.12300
H1720       H  0.40028556  0.59810869  0.31433681     0.14300
C1721       C  0.22266715  0.69275238  0.30993111    -0.05800
C1722       C  0.24228375  0.68221881  0.32336408    -0.05700
C1723       C  0.23138836  0.64639793  0.32611758    -0.23900
C1724       C  0.20116281  0.62081641  0.31508546     0.18400
C1725       C  0.17973409  0.63122707  0.30321481     0.15600
C1726       C  0.18997205  0.66699960  0.30146416    -0.18900
C1727       C  0.15058672  0.60619845  0.29115875    -0.20700
C1728       C  0.14461256  0.57182219  0.28913644    -0.13300
C1729       C  0.16671980  0.56161756  0.29994129     0.03400
C1730       C  0.19385938  0.58567593  0.31387113    -0.25400
H1731       H  0.26776707  0.70154289  0.32978658     0.08500
H1732       H  0.24815775  0.63891743  0.33527846     0.12100
H1733       H  0.17473461  0.67495906  0.29101918     0.12000
H1734       H  0.13398582  0.61383053  0.28193192     0.11800
H1735       H  0.12372738  0.55359495  0.27828817     0.12300
H1736       H  0.21141532  0.57800288  0.32186019     0.14300
C1737       C  0.32875689  0.49418762  0.15423469    -0.05800
C1738       C  0.33492085  0.52505602  0.16532933    -0.05700
C1739       C  0.31929267  0.52334889  0.18583792    -0.23900
C1740       C  0.29650937  0.49066394  0.19539491     0.18400
C1741       C  0.29093753  0.45935293  0.18485789     0.15600
C1742       C  0.30772906  0.46131690  0.16444437    -0.18900
C1743       C  0.26715834  0.42673200  0.19432266    -0.20700
C1744       C  0.24700367  0.42521712  0.21290370    -0.13300
C1745       C  0.25090976  0.45633500  0.22252698     0.03400
C1746       C  0.27734643  0.48892960  0.21446513    -0.25400
H1747       H  0.35158511  0.55069825  0.15794317     0.08500
H1748       H  0.32388440  0.54755500  0.19375496     0.12100
H1749       H  0.30289427  0.43742689  0.15596230     0.12000
H1750       H  0.26267965  0.40243108  0.18661936     0.11800
H1751       H  0.22697485  0.39971056  0.21888475     0.12300
H1752       H  0.28101628  0.51319120  0.22182515     0.14300
C1753       C  0.09768616  0.52456215  0.14221112    -0.05800
C1754       C  0.07767787  0.52306175  0.16097042    -0.05700
C1755       C  0.07807588  0.50509806  0.18016084    -0.23900
C1756       C  0.09824685  0.48815131  0.18075615     0.18400
C1757       C  0.11542269  0.48636051  0.16116682     0.15600
C1758       C  0.11498713  0.50459026  0.14195250    -0.18900
C1759       C  0.13526260  0.46899002  0.16175664    -0.20700
C1760       C  0.14079139  0.45655220  0.18203693    -0.13300
C1761       C  0.12648128  0.46130714  0.20181552     0.03400
C1762       C  0.10399075  0.47565614  0.20101177    -0.25400
H1763       H  0.06411442  0.53823773  0.16150340     0.08500
H1764       H  0.06440243  0.50631153  0.19493915     0.12100
H1765       H  0.13018975  0.50537756  0.12743161     0.12000
H1766       H  0.14831473  0.46705535  0.14687406     0.11800
H1767       H  0.15852348  0.44580560  0.18257339     0.12300
H1768       H  0.09322460  0.47950566  0.21639497     0.14300
C1769       C  0.71131313  0.22006796  0.21107934    -0.05800
C1770       C  0.69661788  0.18860311  0.22341172    -0.05700
C1771       C  0.66043325  0.17002689  0.22777702    -0.23900
C1772       C  0.63848250  0.18264118  0.21972253     0.18400
C1773       C  0.65276048  0.21232467  0.20533994     0.15600
C1774       C  0.68908553  0.23086502  0.20115447    -0.18900
C1775       C  0.63096215  0.22464039  0.19678088    -0.20700
C1776       C  0.59581349  0.20891381  0.20327792    -0.13300
C1777       C  0.58193974  0.18112807  0.21881202     0.03400
C1778       C  0.60313522  0.16750653  0.22673388    -0.25400
H1779       H  0.71358576  0.18048151  0.23169299     0.08500
H1780       H  0.65005414  0.14717038  0.23862179     0.12100
H1781       H  0.70049296  0.25560448  0.19207238     0.12000
H1782       H  0.64134706  0.24714647  0.18562688     0.11800
H1783       H  0.57972649  0.21959810  0.19692786     0.12300
H1784       H  0.59239423  0.14582360  0.23853655     0.14300
C1785       C  0.82533361  0.18261726  0.20878596    -0.05800
C1786       C  0.81688614  0.15037263  0.21904071    -0.05700
C1787       C  0.81348752  0.12195492  0.20625034    -0.23900
C1788       C  0.81819550  0.12521625  0.18296976     0.18400
C1789       C  0.82688774  0.15757688  0.17260280     0.15600
C1790       C  0.83053891  0.18591410  0.18550872    -0.18900
C1791       C  0.83153838  0.16112245  0.14940935    -0.20700
C1792       C  0.82753446  0.13282990  0.13647199    -0.13300
C1793       C  0.81878653  0.10034261  0.14642899     0.03400
C1794       C  0.81422105  0.09677110  0.16982456    -0.25400
H1795       H  0.81279040  0.14708099  0.23691047     0.08500
H1796       H  0.80689468  0.09736096  0.21453628     0.12100
H1797       H  0.83694714  0.21049646  0.17725224     0.12000
H1798       H  0.83822159  0.18582402  0.14123450     0.11800
H1799       H  0.83133247  0.13645719  0.11859694     0.12300
H1800       H  0.80765800  0.07196770  0.17781899     0.14300
C1801       C  0.76180854  0.45935289  0.21447892    -0.05800
C1802       C  0.78617578  0.46941187  0.23209204    -0.05700
C1803       C  0.80485176  0.45157452  0.23616263    -0.23900
C1804       C  0.79970207  0.42343169  0.22252326     0.18400
C1805       C  0.77828817  0.41564744  0.20326006     0.15600
C1806       C  0.75919021  0.43355262  0.19939695    -0.18900
C1807       C  0.77397098  0.38801057  0.18934988    -0.20700
C1808       C  0.78801246  0.36643449  0.19550327    -0.13300
C1809       C  0.80610194  0.37167196  0.21586064     0.03400
C1810       C  0.81322649  0.40125411  0.22881051    -0.25400
H1811       H  0.78802143  0.48872827  0.24415725     0.08500
H1812       H  0.82140463  0.45821588  0.25085850     0.12100
H1813       H  0.73983453  0.42502471  0.18611336     0.12000
H1814       H  0.75816366  0.38189377  0.17434007     0.11800
H1815       H  0.78228676  0.34393167  0.18513572     0.12300
H1816       H  0.82745030  0.40578205  0.24440474     0.14300
C1817       C  0.05147705  0.40050907  0.28120694    -0.05800
C1818       C  0.02674337  0.38756795  0.29853632    -0.05700
C1819       C  0.99066369  0.36947779  0.29356091    -0.23900
C1820       C  0.97912632  0.36428262  0.27122626     0.18400
C1821       C  0.00391160  0.37962479  0.25382090     0.15600
C1822       C  0.03986917  0.39773220  0.25896493    -0.18900
C1823       C  0.99242705  0.37495916  0.23150697    -0.20700
C1824       C  0.95674007  0.35355789  0.22637339    -0.13300
C1825       C  0.93231410  0.33634302  0.24348076     0.03400
C1826       C  0.94349175  0.34263907  0.26590751    -0.25400
H1827       H  0.03529083  0.38953085  0.31571173     0.08500
H1828       H  0.97186291  0.35822645  0.30709694     0.12100
H1829       H  0.05903486  0.40813189  0.24554109     0.12000
H1830       H  0.01118846  0.38689663  0.21801140     0.11800
H1831       H  0.94848413  0.34912839  0.20906875     0.12300
H1832       H  0.92450661  0.32979463  0.27919854     0.14300
C1833       C  0.73101579  0.19074228  0.29809908    -0.05800
C1834       C  0.69537552  0.18129202  0.29564874    -0.05700
C1835       C  0.67094341  0.16187131  0.31224985    -0.23900
C1836       C  0.68194351  0.15232068  0.33179414     0.18400
C1837       C  0.71732419  0.15994298  0.33385117     0.15600
C1838       C  0.74145033  0.17849592  0.31678690    -0.18900
C1839       C  0.72859046  0.15129402  0.35367114    -0.20700
C1840       C  0.70573379  0.13769817  0.37188092    -0.13300
C1841       C  0.67123636  0.13190795  0.37028434     0.03400
C1842       C  0.65895275  0.13784993  0.34998484    -0.25400
H1843       H  0.68667539  0.19016621  0.28130155     0.08500
H1844       H  0.64388072  0.15602779  0.31034622     0.12100
H1845       H  0.76891825  0.18587298  0.31895399     0.12000
H1846       H  0.75560373  0.15696650  0.35553382     0.11800
H1847       H  0.71552045  0.13357017  0.38759713     0.12300
H1848       H  0.63238935  0.13385737  0.34897053     0.14300
C1849       C  0.85205213  0.37526550  0.39324492    -0.05800
C1850       C  0.82466680  0.34015779  0.39402090    -0.05700
C1851       C  0.81875388  0.31776077  0.37600885    -0.23900
C1852       C  0.83989537  0.33035932  0.35691797     0.18400
C1853       C  0.86960050  0.36450621  0.35688203     0.15600
C1854       C  0.87597457  0.38647088  0.37532312    -0.18900
C1855       C  0.89060238  0.37716735  0.33765643    -0.20700
C1856       C  0.88078183  0.35709152  0.31814989    -0.13300
C1857       C  0.85007363  0.32427251  0.31783326     0.03400
C1858       C  0.83039181  0.31040435  0.33734917    -0.25400
H1859       H  0.80620210  0.33078030  0.40780515     0.08500
H1860       H  0.79624328  0.29144781  0.37640006     0.12100
H1861       H  0.89730187  0.41343665  0.37457213     0.12000
H1862       H  0.91354985  0.40319039  0.33739067     0.11800
H1863       H  0.89618025  0.36776658  0.30308264     0.12300
H1864       H  0.80673631  0.28485003  0.33693319     0.14300
C1865       C  0.60530902  0.40516680  0.46728485    -0.05800
C1866       C  0.62050378  0.43151160  0.45088017    -0.05700
C1867       C  0.65687048  0.44936127  0.44735068    -0.23900
C1868       C  0.67873366  0.44131276  0.46033528     0.18400
C1869       C  0.66401807  0.41727804  0.47833434     0.15600
C1870       C  0.62726602  0.39906352  0.48159087    -0.18900
C1871       C  0.68603986  0.40993541  0.49167311    -0.20700
C1872       C  0.72170986  0.42436320  0.48637366    -0.13300
C1873       C  0.73594068  0.44581494  0.46737765     0.03400
C1874       C  0.71450162  0.45502960  0.45474915    -0.25400
H1875       H  0.60386094  0.43598128  0.43940111     0.08500
H1876       H  0.66759516  0.46790364  0.43362100     0.12100
H1877       H  0.61561409  0.37812900  0.49389423     0.12000
H1878       H  0.67540537  0.39187995  0.50565051     0.11800
H1879       H  0.73767483  0.41674487  0.49630349     0.12300
H1880       H  0.72527257  0.47163642  0.44012387     0.14300
C1881       C  0.51921724  0.25792956  0.46931655    -0.05800
C1882       C  0.54796524  0.27272605  0.48409903    -0.05700
C1883       C  0.56594845  0.25472095  0.48968434    -0.23900
C1884       C  0.55499230  0.22114856  0.48101335     0.18400
C1885       C  0.52431356  0.20474057  0.46759857     0.15600
C1886       C  0.50690249  0.22350658  0.46148087    -0.18900
C1887       C  0.51298557  0.17072676  0.45944339    -0.20700
C1888       C  0.53334064  0.15440785  0.46301166    -0.13300
C1889       C  0.56540455  0.17189129  0.47461624     0.03400
C1890       C  0.57555215  0.20479383  0.48421758    -0.25400
H1891       H  0.55806379  0.29935109  0.49017473     0.08500
H1892       H  0.58922037  0.26761974  0.50010171     0.12100
H1893       H  0.48473437  0.21194866  0.45008704     0.12000
H1894       H  0.48946885  0.15756042  0.44926843     0.11800
H1895       H  0.52568597  0.12948098  0.45491897     0.12300
H1896       H  0.60075195  0.21876716  0.49266559     0.14300
C1897       C  0.57767040  0.42868145  0.38418782    -0.05800
C1898       C  0.61194663  0.43340901  0.38533192    -0.05700
C1899       C  0.63632685  0.45144065  0.36855643    -0.23900
C1900       C  0.62675238  0.46473915  0.35018551     0.18400
C1901       C  0.59322514  0.46238834  0.34950723     0.15600
C1902       C  0.56896995  0.44479616  0.36678861    -0.18900
C1903       C  0.58376540  0.47534087  0.33075153    -0.20700
C1904       C  0.60638212  0.48827168  0.31229883    -0.13300
C1905       C  0.63886795  0.48891983  0.31261927     0.03400
C1906       C  0.64933176  0.47817345  0.33183341    -0.25400
H1907       H  0.61936779  0.42151518  0.39866365     0.08500
H1908       H  0.66203345  0.45331378  0.36937048     0.12100
H1909       H  0.54254108  0.44110184  0.36568715     0.12000
H1910       H  0.55819720  0.47375678  0.32987693     0.11800
H1911       H  0.59757398  0.49568589  0.29740909     0.12300
H1912       H  0.67432366  0.47836741  0.33193178     0.14300
C1913       C  0.45489014  0.29128189  0.36723462    -0.05800
C1914       C  0.42862455  0.25596222  0.36895906    -0.05700
C1915       C  0.41907828  0.23402855  0.35027936    -0.23900
C1916       C  0.43656662  0.24701529  0.32986878     0.18400
C1917       C  0.46181685  0.28311109  0.32780449     0.15600
C1918       C  0.47036912  0.30517846  0.34646984    -0.18900
C1919       C  0.48029321  0.29582289  0.30770114    -0.20700
C1920       C  0.47642116  0.27240533  0.29064725    -0.13300
C1921       C  0.45324865  0.23614022  0.29319720     0.03400
C1922       C  0.43170928  0.22392940  0.31224718    -0.25400
H1923       H  0.41675675  0.24499444  0.38499068     0.08500
H1924       H  0.39969958  0.20646789  0.35215760     0.12100
H1925       H  0.49107313  0.33240461  0.34532212     0.12000
H1926       H  0.49953552  0.32342384  0.30578416     0.11800
H1927       H  0.49308407  0.28234656  0.27600776     0.12300
H1928       H  0.41404306  0.19595575  0.31443690     0.14300
C1929       C  0.03606360  0.11870596  0.37213643    -0.05800
C1930       C  0.01869493  0.13663831  0.37968201    -0.05700
C1931       C  0.98223744  0.11835376  0.38356782    -0.23900
C1932       C  0.96289413  0.08175568  0.38037567     0.18400
C1933       C  0.97983897  0.06443462  0.37066694     0.15600
C1934       C  0.01594733  0.08328218  0.36590520    -0.18900
C1935       C  0.96143599  0.02786271  0.36808144    -0.20700
C1936       C  0.92741792  0.00827338  0.37645357    -0.13300
C1937       C  0.91079348  0.02480430  0.38708191     0.03400
C1938       C  0.92796868  0.06174497  0.38827790    -0.25400
H1939       H  0.03382361  0.16373117  0.38513799     0.08500
H1940       H  0.96986679  0.13223374  0.39090342     0.12100
H1941       H  0.02935480  0.06916590  0.36057144     0.12000
H1942       H  0.97400123  0.01420679  0.36067281     0.11800
H1943       H  0.91424050  0.97982921  0.37516572     0.12300
H1944       H  0.91511820  0.07453492  0.39645461     0.14300
C1945       C  0.16188948  0.35914943  0.31721644    -0.05800
C1946       C  0.16768802  0.33394315  0.30629800    -0.05700
C1947       C  0.16915956  0.30723072  0.31834473    -0.23900
C1948       C  0.16479696  0.30510100  0.34158060     0.18400
C1949       C  0.15929509  0.33039759  0.35284403     0.15600
C1950       C  0.15792774  0.35727386  0.34062580    -0.18900
C1951       C  0.15484757  0.32811003  0.37610420    -0.20700
C1952       C  0.15513526  0.30060604  0.38802082    -0.13300
C1953       C  0.16006752  0.27496415  0.37693574     0.03400
C1954       C  0.16533360  0.27775176  0.35365846    -0.25400
H1955       H  0.17088924  0.33469294  0.28834157     0.08500
H1956       H  0.17342918  0.28806079  0.30944952     0.12100
H1957       H  0.15354221  0.37651941  0.34934163     0.12000
H1958       H  0.15071822  0.34733014  0.38504718     0.11800
H1959       H  0.15114145  0.29924185  0.40591880     0.12300
H1960       H  0.16918963  0.25826827  0.34481221     0.14300
C1961       C  0.08546270  0.92891386  0.39188434    -0.05800
C1962       C  0.11310985  0.94548031  0.40731807    -0.05700
C1963       C  0.13071826  0.98197961  0.40988605    -0.23900
C1964       C  0.12097244  0.00263114  0.39699851     0.18400
C1965       C  0.09554447  0.98655917  0.37987625     0.15600
C1966       C  0.07774983  0.94962636  0.37745806    -0.18900
C1967       C  0.08647004  0.00746567  0.36667017    -0.20700
C1968       C  0.10048605  0.04327703  0.37137369    -0.13300
C1969       C  0.12328943  0.05872914  0.38960973     0.03400
C1970       C  0.13432606  0.03851340  0.40196849    -0.25400
H1971       H  0.11903577  0.92981576  0.41877475     0.08500
H1972       H  0.15040421  0.99376845  0.42289211     0.12100
H1973       H  0.05597862  0.93695530  0.36583775     0.12000
H1974       H  0.06733895  0.99583313  0.35334898     0.11800
H1975       H  0.09151348  0.05838339  0.36169275     0.12300
H1976       H  0.15199736  0.05029486  0.41600293     0.14300
C1977       C  0.38013412  0.28260745  0.44595232    -0.05800
C1978       C  0.35690076  0.27398897  0.46398101    -0.05700
C1979       C  0.32048961  0.25459399  0.46042990    -0.23900
C1980       C  0.30699334  0.24353586  0.43880616     0.18400
C1981       C  0.33026277  0.25000839  0.42081240     0.15600
C1982       C  0.36672900  0.26955709  0.42452480    -0.18900
C1983       C  0.31661675  0.23850402  0.39924925    -0.20700
C1984       C  0.28027309  0.22280990  0.39529216    -0.13300
C1985       C  0.25725606  0.21865810  0.41282788     0.03400
C1986       C  0.27074016  0.22783907  0.43468997    -0.25400
H1987       H  0.36680928  0.28403526  0.48050462     0.08500
H1988       H  0.30288581  0.24955323  0.47440912     0.12100
H1989       H  0.38472645  0.27614850  0.41056552     0.12000
H1990       H  0.33414824  0.24290830  0.38532303     0.11800
H1991       H  0.27042184  0.21570884  0.37840788     0.12300
H1992       H  0.25303993  0.22407505  0.44842849     0.14300
C1993       C  0.18827614  0.10874938  0.55994597    -0.05800
C1994       C  0.21961661  0.13230025  0.54890190    -0.05700
C1995       C  0.21862481  0.15081744  0.53005407    -0.23900
C1996       C  0.18618639  0.14514272  0.52170195     0.18400
C1997       C  0.15504529  0.12373440  0.53391595     0.15600
C1998       C  0.15651678  0.10683800  0.55333938    -0.18900
C1999       C  0.12236935  0.11674581  0.52548294    -0.20700
C2000       C  0.12018405  0.12843165  0.50428732    -0.13300
C2001       C  0.15066301  0.14809021  0.49143704     0.03400
C2002       C  0.18387954  0.15804778  0.50060660    -0.25400
H2003       H  0.24455019  0.13461735  0.55389668     0.08500
H2004       H  0.24283163  0.16744671  0.52111841     0.12100
H2005       H  0.13215133  0.08905250  0.56179132     0.12000
H2006       H  0.09833057  0.10055893  0.53471233     0.11800
H2007       H  0.09440084  0.12128664  0.49763535     0.12300
H2008       H  0.20741991  0.17336715  0.49072955     0.14300
C2009       C  0.05290585  0.17973764  0.46041929    -0.05800
C2010       C  0.01682805  0.15601435  0.45761216    -0.05700
C2011       C  0.99261999  0.15300232  0.47391480    -0.23900
C2012       C  0.00425943  0.17315307  0.49345392     0.18400
C2013       C  0.04000597  0.19922977  0.49556108     0.15600
C2014       C  0.06397388  0.20285481  0.47878156    -0.18900
C2015       C  0.05174524  0.21890353  0.51533365    -0.20700
C2016       C  0.02904148  0.21047401  0.53360886    -0.13300
C2017       C  0.99433921  0.18270676  0.53213338     0.03400
C2018       C  0.98155213  0.16536423  0.51171521    -0.25400
H2019       H  0.00758119  0.13832546  0.44345964     0.08500
H2020       H  0.96519698  0.13322496  0.47193997     0.12100
H2021       H  0.09172074  0.22133341  0.48116427     0.12000
H2022       H  0.07905339  0.23904581  0.51720993     0.11800
H2023       H  0.03937677  0.22364234  0.54936747     0.12300
H2024       H  0.95477336  0.14364623  0.51072279     0.14300
C2025       C  0.74306457  0.26416133  0.97158603    -0.05800
C2026       C  0.72990696  0.27699418  0.98843953    -0.05700
C2027       C  0.69487408  0.25790186  0.99527225    -0.23900
C2028       C  0.67229765  0.22516524  0.98576305     0.18400
C2029       C  0.68566687  0.21078699  0.96983268     0.15600
C2030       C  0.72089036  0.23070214  0.96249960    -0.18900
C2031       C  0.66298611  0.17753465  0.96081997    -0.20700
C2032       C  0.62704382  0.16016150  0.96609555    -0.13300
C2033       C  0.61310712  0.17585960  0.98030862     0.03400
C2034       C  0.63612583  0.20773307  0.99076051    -0.25400
H2035       H  0.74636433  0.30277303  0.99558740     0.08500
H2036       H  0.68515982  0.26929415  0.00759260     0.12100
H2037       H  0.73083035  0.22052454  0.94953164     0.12000
H2038       H  0.67265220  0.16580670  0.94871544     0.11800
H2039       H  0.60958728  0.13606841  0.95738729     0.12300
H2040       H  0.62538640  0.22044364  0.00128209     0.14300
C2041       C  0.49803266  0.02394272  0.98695140    -0.05800
C2042       C  0.51583436  0.00757977  0.97756258    -0.05700
C2043       C  0.51805889  0.98080480  0.98903461    -0.23900
C2044       C  0.50223726  0.96961030  0.01004934     0.18400
C2045       C  0.48472263  0.98612012  0.01989075     0.15600
C2046       C  0.48290921  0.01331707  0.00834945    -0.18900
C2047       C  0.46895524  0.97478927  0.04096275    -0.20700
C2048       C  0.46995143  0.94690031  0.05197503    -0.13300
C2049       C  0.48666947  0.92982733  0.04208104     0.03400
C2050       C  0.50318027  0.94177142  0.02118847    -0.25400
H2051       H  0.52813583  0.01552803  0.96130440     0.08500
H2052       H  0.53182075  0.96856208  0.98133904     0.12100
H2053       H  0.46921511  0.02576593  0.01587536     0.12000
H2054       H  0.45548149  0.98721049  0.04880504     0.11800
H2055       H  0.45711552  0.93829561  0.06803668     0.12300
H2056       H  0.51655294  0.92916876  0.01341799     0.14300
C2057       C  0.55598899  0.36297448  0.97119905    -0.05800
C2058       C  0.52910746  0.34656410  0.95524364    -0.05700
C2059       C  0.51095367  0.30996702  0.95293504    -0.23900
C2060       C  0.51938389  0.28905844  0.96661592     0.18400
C2061       C  0.54376724  0.30500180  0.98426198     0.15600
C2062       C  0.56206737  0.34199371  0.98643322    -0.18900
C2063       C  0.55161458  0.28390734  0.99820335    -0.20700
C2064       C  0.53768915  0.24803923  0.99364524    -0.13300
C2065       C  0.51613564  0.23264449  0.97486637     0.03400
C2066       C  0.50599335  0.25306839  0.96187177    -0.25400
H2067       H  0.52453657  0.36232728  0.94306700     0.08500
H2068       H  0.49211071  0.29829410  0.93948792     0.12100
H2069       H  0.58331290  0.35444871  0.99841195     0.12000
H2070       H  0.56989682  0.29545452  0.01193917     0.11800
H2071       H  0.54600200  0.23292318  0.00388950     0.12300
H2072       H  0.48930079  0.24146009  0.94742190     0.14300
C2073       C  0.59351327  0.12239814  0.90004050    -0.05800
C2074       C  0.62780124  0.15136711  0.90104702    -0.05700
C2075       C  0.65278689  0.15596651  0.88499157    -0.23900
C2076       C  0.64383467  0.13186867  0.86750453     0.18400
C2077       C  0.61060993  0.10091726  0.86739294     0.15600
C2078       C  0.58572656  0.09610798  0.88391074    -0.18900
C2079       C  0.60193102  0.07691015  0.84971623    -0.20700
C2080       C  0.62457487  0.08519758  0.83136094    -0.13300
C2081       C  0.65604975  0.11745350  0.83062524     0.03400
C2082       C  0.66638306  0.13977106  0.84919568    -0.25400
H2083       H  0.63476055  0.17170920  0.91347901     0.08500
H2084       H  0.67836956  0.17953118  0.88547147     0.12100
H2085       H  0.55949461  0.07350256  0.88302287     0.12000
H2086       H  0.57675326  0.05286305  0.84942698     0.11800
H2087       H  0.61630204  0.06775990  0.81708127     0.12300
H2088       H  0.69083616  0.16463363  0.84860130     0.14300
C2089       C  0.48058284  0.19598763  0.80035307    -0.05800
C2090       C  0.51368117  0.19831231  0.80331977    -0.05700
C2091       C  0.52026743  0.18312248  0.82183606    -0.23900
C2092       C  0.49391436  0.16542014  0.83776055     0.18400
C2093       C  0.45965149  0.16028624  0.83414634     0.15600
C2094       C  0.45306622  0.17533635  0.81525300    -0.18900
C2095       C  0.43336237  0.14222160  0.85026019    -0.20700
C2096       C  0.44161406  0.13132432  0.87032453    -0.13300
C2097       C  0.47624436  0.13871322  0.87442398     0.03400
C2098       C  0.50191597  0.15462936  0.85783614    -0.25400
H2099       H  0.53525692  0.21376358  0.79202181     0.08500
H2100       H  0.54652030  0.18682921  0.82428482     0.12100
H2101       H  0.42746236  0.17340499  0.81320740     0.12000
H2102       H  0.40687306  0.13779155  0.84773279     0.11800
H2103       H  0.42155263  0.11888318  0.88303602     0.12300
H2104       H  0.52859733  0.15990332  0.86099815     0.14300
C2105       C  0.91705432  0.83044896  0.89395812    -0.05800
C2106       C  0.93231149  0.81714204  0.90903205    -0.05700
C2107       C  0.96763543  0.82603829  0.90693811    -0.23900
C2108       C  0.98875474  0.84964284  0.89028816     0.18400
C2109       C  0.97342210  0.86191488  0.87430443     0.15600
C2110       C  0.93730641  0.85140754  0.87588603    -0.18900
C2111       C  0.99518697  0.88706838  0.85843148    -0.20700
C2112       C  0.03198524  0.90258059  0.85994506    -0.13300
C2113       C  0.04734021  0.89210581  0.87676994     0.03400
C2114       C  0.02544993  0.86401771  0.89090410    -0.25400
H2115       H  0.91722792  0.80100172  0.92302117     0.08500
H2116       H  0.97897644  0.81629706  0.91926291     0.12100
H2117       H  0.92589901  0.86230386  0.86440172     0.12000
H2118       H  0.98396372  0.89690060  0.84607994     0.11800
H2119       H  0.04836895  0.92483679  0.84933102     0.12300
H2120       H  0.03725216  0.85658365  0.90433255     0.14300
C2121       C  0.12274198  0.03234548  0.88823258    -0.05800
C2122       C  0.08971492  0.01359254  0.87789857    -0.05700
C2123       C  0.07178375  0.03072644  0.87055557    -0.23900
C2124       C  0.08673810  0.06710444  0.87327344     0.18400
C2125       C  0.12112370  0.08679746  0.88221121     0.15600
C2126       C  0.13903344  0.06917635  0.88982024    -0.18900
C2127       C  0.13572490  0.12333392  0.88474614    -0.20700
C2128       C  0.11496798  0.13927484  0.88104480    -0.13300
C2129       C  0.07955367  0.11892646  0.87461061     0.03400
C2130       C  0.06649143  0.08343311  0.86918034    -0.25400
H2131       H  0.07709175  0.98523099  0.87628421     0.08500
H2132       H  0.04559728  0.01530014  0.86361075     0.12100
H2133       H  0.16476904  0.08373277  0.89751110     0.12000
H2134       H  0.16213641  0.13905004  0.89127887     0.11800
H2135       H  0.12528696  0.16656074  0.88575861     0.12300
H2136       H  0.03898742  0.06753705  0.86458128     0.14300
C2137       C  0.26809720  0.01262846  0.91647540    -0.05800
C2138       C  0.29259613  0.03213496  0.89981601    -0.05700
C2139       C  0.32859287  0.05178623  0.90498811    -0.23900
C2140       C  0.34049275  0.05253367  0.92695478     0.18400
C2141       C  0.31577279  0.03493791  0.94409727     0.15600
C2142       C  0.27982383  0.01502657  0.93871820    -0.18900
C2143       C  0.32759879  0.03624880  0.96614451    -0.20700
C2144       C  0.36375548  0.05326670  0.97097974    -0.13300
C2145       C  0.38851921  0.06894937  0.95382138     0.03400
C2146       C  0.37668317  0.06919670  0.93192268    -0.25400
H2147       H  0.28415539  0.03065933  0.88264833     0.08500
H2148       H  0.34723207  0.06546452  0.89169009     0.12100
H2149       H  0.26098097  0.00033916  0.95174242     0.12000
H2150       H  0.30891328  0.02308576  0.97950530     0.11800
H2151       H  0.37235447  0.05253330  0.98784971     0.12300
H2152       H  0.39576990  0.08126097  0.91860496     0.14300
C2153       C  0.18421704  0.99510355  0.98868331    -0.05800
C2154       C  0.21486580  0.02803400  0.98760190    -0.05700
C2155       C  0.22531232  0.05079549  0.00597310    -0.23900
C2156       C  0.20507974  0.04090657  0.02561420     0.18400
C2157       C  0.17543462  0.00676697  0.02716817     0.15600
C2158       C  0.16522889  0.98411000  0.00870375    -0.18900
C2159       C  0.15492362  0.99676736  0.04655997    -0.20700
C2160       C  0.16152623  0.02134906  0.06331607    -0.13300
C2161       C  0.18921456  0.05621847  0.06133326     0.03400
C2162       C  0.21219795  0.06532579  0.04295574    -0.25400
H2163       H  0.22966651  0.03682058  0.97217550     0.08500
H2164       H  0.24819474  0.07672496  0.00443605     0.12100
H2165       H  0.14145203  0.95867731  0.00946721     0.12000
H2166       H  0.13231443  0.97064223  0.04812632     0.11800
H2167       H  0.14323758  0.01376605  0.07711821     0.12300
H2168       H  0.23338460  0.09219614  0.04107847     0.14300
C2169       C  0.06781554  0.85474141  0.96728959    -0.05800
C2170       C  0.03169944  0.84232864  0.96395243    -0.05700
C2171       C  0.00718979  0.82226234  0.98036295    -0.23900
C2172       C  0.01855409  0.81525386  0.00068829     0.18400
C2173       C  0.05459159  0.82574118  0.00365657     0.15600
C2174       C  0.07888444  0.84475182  0.98670427    -0.18900
C2175       C  0.06613481  0.81972552  0.02425129    -0.20700
C2176       C  0.04278607  0.80607154  0.04224206    -0.13300
C2177       C  0.00753175  0.79769754  0.03976789     0.03400
C2178       C  0.99515339  0.80090585  0.01874494    -0.25400
H2179       H  0.02266057  0.84974555  0.94911915     0.08500
H2180       H  0.97966143  0.81424222  0.97773779     0.12100
H2181       H  0.10675177  0.85463737  0.98955705     0.12000
H2182       H  0.09365031  0.82768606  0.02686323     0.11800
H2183       H  0.05278880  0.80439004  0.05850339     0.12300
H2184       H  0.96807693  0.79517998  0.01700417     0.14300
C2185       C  0.27848872  0.74011791  0.81463802    -0.05800
C2186       C  0.29568728  0.77436704  0.80570467    -0.05700
C2187       C  0.33239535  0.79303563  0.80365213    -0.23900
C2188       C  0.35258117  0.77771323  0.81050274     0.18400
C2189       C  0.33582881  0.74491599  0.82179163     0.15600
C2190       C  0.29883901  0.72630807  0.82379735    -0.18900
C2191       C  0.35604653  0.72986299  0.82906002    -0.20700
C2192       C  0.39187189  0.74576638  0.82380225    -0.13300
C2193       C  0.40806288  0.77663518  0.81083816     0.03400
C2194       C  0.38855202  0.79314946  0.80476580    -0.25400
H2195       H  0.28047103  0.78513280  0.79806174     0.08500
H2196       H  0.34469706  0.81831713  0.79522599     0.12100
H2197       H  0.28577955  0.69955449  0.83017077     0.12000
H2198       H  0.34382422  0.70491917  0.83788772     0.11800
H2199       H  0.40644264  0.73256781  0.82856123     0.12300
H2200       H  0.40089187  0.81697111  0.79476763     0.14300
C2201       C  0.14720054  0.75635006  0.82880392    -0.05800
C2202       C  0.13484921  0.74503277  0.85067981    -0.05700
C2203       C  0.13625571  0.76880395  0.86687741    -0.23900
C2204       C  0.15047367  0.80459019  0.86166883     0.18400
C2205       C  0.16285597  0.81617469  0.83971934     0.15600
C2206       C  0.16080740  0.79205601  0.82341876    -0.18900
C2207       C  0.17754618  0.85184746  0.83443237    -0.20700
C2208       C  0.17975453  0.87580802  0.85056697    -0.13300
C2209       C  0.16716333  0.86487953  0.87248845     0.03400
C2210       C  0.15258769  0.82897607  0.87795413    -0.25400
H2211       H  0.12419240  0.71765809  0.85535223     0.08500
H2212       H  0.12658414  0.75924078  0.88353205     0.12100
H2213       H  0.17076159  0.80128138  0.80674729     0.12000
H2214       H  0.18732994  0.86128847  0.81777101     0.11800
H2215       H  0.19114388  0.90315532  0.84563974     0.12300
H2216       H  0.14269186  0.82001827  0.89466157     0.14300
C2217       C  0.19191894  0.58895904  0.78873009    -0.05800
C2218       C  0.18718444  0.56750376  0.77018381    -0.05700
C2219       C  0.19547193  0.54045295  0.77143303    -0.23900
C2220       C  0.20995207  0.53512603  0.79099875     0.18400
C2221       C  0.21358403  0.55540047  0.81015757     0.15600
C2222       C  0.20373249  0.58175844  0.80905792    -0.18900
C2223       C  0.22932507  0.55055019  0.82944591    -0.20700
C2224       C  0.24438629  0.52844734  0.82894543    -0.13300
C2225       C  0.24280648  0.51013244  0.80938442     0.03400
C2226       C  0.22356752  0.51195579  0.79104231    -0.25400
H2227       H  0.17774455  0.57216423  0.75449783     0.08500
H2228       H  0.19207814  0.52480506  0.75671519     0.12100
H2229       H  0.20764515  0.59824461  0.82348004     0.12000
H2230       H  0.23221663  0.56572383  0.84436502     0.11800
H2231       H  0.25947406  0.52780548  0.84313689     0.12300
H2232       H  0.22236034  0.49786374  0.77590051     0.14300
C2233       C  0.23000643  0.78284322  0.72527338    -0.05800
C2234       C  0.20974135  0.78725815  0.70855449    -0.05700
C2235       C  0.22507212  0.80350886  0.68829066    -0.23900
C2236       C  0.26098353  0.81593817  0.68454731     0.18400
C2237       C  0.28226989  0.81545318  0.70227041     0.15600
C2238       C  0.26666434  0.79897886  0.72253611    -0.18900
C2239       C  0.31837480  0.82873974  0.69880805    -0.20700
C2240       C  0.33268143  0.83957127  0.67753995    -0.13300
C2241       C  0.31107820  0.83685588  0.65943213     0.03400
C2242       C  0.27546928  0.82629301  0.66305507    -0.25400
H2243       H  0.18142031  0.77522153  0.71024651     0.08500
H2244       H  0.20845327  0.80428864  0.67509702     0.12100
H2245       H  0.28259378  0.79608764  0.73539020     0.12000
H2246       H  0.33514775  0.82894388  0.71222805     0.11800
H2247       H  0.36020228  0.84758221  0.67488191     0.12300
H2248       H  0.25883690  0.82429753  0.64903732     0.14300
C2249       C  0.13806942  0.65184365  0.70231877    -0.05800
C2250       C  0.16277129  0.66831602  0.68516355    -0.05700
C2251       C  0.15849213  0.65183162  0.66466247    -0.23900
C2252       C  0.12989889  0.61816472  0.66128730     0.18400
C2253       C  0.10346820  0.60245658  0.67786322     0.15600
C2254       C  0.10736758  0.61985302  0.69826168    -0.18900
C2255       C  0.07538879  0.56836006  0.67450387    -0.20700
C2256       C  0.07555714  0.54873101  0.65613924    -0.13300
C2257       C  0.10357862  0.56316369  0.64075472     0.03400
C2258       C  0.12926184  0.59873444  0.64261182    -0.25400
H2259       H  0.18646912  0.69318785  0.68811492     0.08500
H2260       H  0.17882160  0.66431588  0.65207519     0.12100
H2261       H  0.08846807  0.60705921  0.71160242     0.12000
H2262       H  0.05466362  0.55600428  0.68685421     0.11800
H2263       H  0.05513179  0.52146708  0.65492871     0.12300
H2264       H  0.15073258  0.61036516  0.63068630     0.14300
C2265       C  0.58065973  0.37402601  0.71646977    -0.05800
C2266       C  0.59411079  0.36687297  0.69702484    -0.05700
C2267       C  0.62950745  0.38776749  0.69108365    -0.23900
C2268       C  0.65203583  0.41668825  0.70422857     0.18400
C2269       C  0.63794070  0.42637373  0.72242945     0.15600
C2270       C  0.60244640  0.40472312  0.72864681    -0.18900
C2271       C  0.66026922  0.45609785  0.73505212    -0.20700
C2272       C  0.69659864  0.47365997  0.73118918    -0.13300
C2273       C  0.71129651  0.46151968  0.71495053     0.03400
C2274       C  0.68874146  0.43414057  0.70071138    -0.25400
H2275       H  0.57793929  0.34345123  0.68731717     0.08500
H2276       H  0.63963871  0.38022490  0.67686581     0.12100
H2277       H  0.59234043  0.41069117  0.74356442     0.12000
H2278       H  0.64996049  0.46441154  0.74879730     0.11800
H2279       H  0.71357395  0.49460174  0.74242136     0.12300
H2280       H  0.69989760  0.42423065  0.68841115     0.14300
C2281       C  0.79859189  0.39403378  0.72258885    -0.05800
C2282       C  0.77465295  0.37911105  0.70483051    -0.05700
C2283       C  0.75867527  0.34303752  0.70042226    -0.23900
C2284       C  0.76697113  0.32130051  0.71336459     0.18400
C2285       C  0.79366566  0.33664544  0.72979618     0.15600
C2286       C  0.80892015  0.37285092  0.73458181    -0.18900
C2287       C  0.80293132  0.31504555  0.74211006    -0.20700
C2288       C  0.78381657  0.27847184  0.73959454    -0.13300
C2289       C  0.75477871  0.26280160  0.72513057     0.03400
C2290       C  0.74731117  0.28436269  0.71133196    -0.25400
H2291       H  0.76622260  0.39489650  0.69540084     0.08500
H2292       H  0.73868939  0.33192190  0.68755543     0.12100
H2293       H  0.82751272  0.38417374  0.74821637     0.12000
H2294       H  0.82369266  0.32624156  0.75449314     0.11800
H2295       H  0.78988529  0.26210795  0.75027955     0.12300
H2296       H  0.72460188  0.27243618  0.70038557     0.14300
C2297       C  0.93268483  0.55131500  0.74801774    -0.05800
C2298       C  0.95657484  0.55251624  0.73189558    -0.05700
C2299       C  0.99211011  0.56519424  0.73755192    -0.23900
C2300       C  0.00410608  0.57650900  0.75945721     0.18400
C2301       C  0.97964381  0.57279144  0.77610964     0.15600
C2302       C  0.94424550  0.56020162  0.77028752    -0.18900
C2303       C  0.99135749  0.58385929  0.79803152    -0.20700
C2304       C  0.02739161  0.60122344  0.80303149    -0.13300
C2305       C  0.05216898  0.60732691  0.78629226     0.03400
C2306       C  0.04028737  0.59370005  0.76470284    -0.25400
H2307       H  0.94821273  0.54541568  0.71475448     0.08500
H2308       H  0.01046328  0.56747977  0.72461298     0.12100
H2309       H  0.92583430  0.55861933  0.78299992     0.12000
H2310       H  0.97282463  0.58098403  0.81100182     0.11800
H2311       H  0.03603311  0.61224686  0.81953198     0.12300
H2312       H  0.05939800  0.59902648  0.75159151     0.14300
C2313       C  0.84054964  0.48691749  0.82375165    -0.05800
C2314       C  0.81417503  0.47578125  0.84004994    -0.05700
C2315       C  0.81810065  0.46273878  0.86037012    -0.23900
C2316       C  0.84800733  0.45956169  0.86434416     0.18400
C2317       C  0.87570522  0.47242045  0.84853637     0.15600
C2318       C  0.87213417  0.48692234  0.82834340    -0.18900
C2319       C  0.90499263  0.46791699  0.85254151    -0.20700
C2320       C  0.90510117  0.44788839  0.87085583    -0.13300
C2321       C  0.87621862  0.43281335  0.88556508     0.03400
C2322       C  0.84902374  0.44089893  0.88298325    -0.25400
H2323       H  0.78981099  0.47589993  0.83663738     0.08500
H2324       H  0.79675344  0.45307008  0.87237815     0.12100
H2325       H  0.89236527  0.49536955  0.81560555     0.12000
H2326       H  0.92668129  0.47789020  0.84078619     0.11800
H2327       H  0.92667549  0.44244750  0.87270742     0.12300
H2328       H  0.82698760  0.43013906  0.89452049     0.14300
C2329       C  0.73217307  0.51257792  0.79801472    -0.05800
C2330       C  0.69675271  0.48609577  0.79621579    -0.05700
C2331       C  0.67255677  0.48175693  0.81278904    -0.23900
C2332       C  0.68354015  0.50345534  0.83162668     0.18400
C2333       C  0.71823567  0.53217579  0.83270457     0.15600
C2334       C  0.74222435  0.53697936  0.81561098    -0.18900
C2335       C  0.72912982  0.55361074  0.85178804    -0.20700
C2336       C  0.70687967  0.54476016  0.87035589    -0.13300
C2337       C  0.67350475  0.51469056  0.86984528     0.03400
C2338       C  0.66135129  0.49508365  0.85016176    -0.25400
H2339       H  0.68820337  0.46718594  0.78274135     0.08500
H2340       H  0.64590058  0.45994253  0.81159774     0.12100
H2341       H  0.76941341  0.55758925  0.81716556     0.12000
H2342       H  0.75553236  0.57586830  0.85286749     0.11800
H2343       H  0.71658655  0.55996355  0.88552804     0.12300
H2344       H  0.63545053  0.47185750  0.84986236     0.14300
C2345       C  0.94614352  0.83465829  0.64305072    -0.05800
C2346       C  0.95544671  0.86381237  0.65695521    -0.05700
C2347       C  0.99084007  0.88999869  0.65902163    -0.23900
C2348       C  0.01712366  0.88772597  0.64672948     0.18400
C2349       C  0.00812389  0.85706457  0.63418902     0.15600
C2350       C  0.97302250  0.83015134  0.63330971    -0.18900
C2351       C  0.03356946  0.85531453  0.62077498    -0.20700
C2352       C  0.06696133  0.88468890  0.61842951    -0.13300
C2353       C  0.07592503  0.91563359  0.63026054     0.03400
C2354       C  0.05143774  0.91657119  0.64516283    -0.25400
H2355       H  0.93525023  0.86811893  0.66439458     0.08500
H2356       H  0.99722820  0.91332836  0.66871739     0.12100
H2357       H  0.96607013  0.80769594  0.62254846     0.12000
H2358       H  0.02693601  0.83202933  0.61095770     0.11800
H2359       H  0.08550801  0.88365200  0.60686310     0.12300
H2360       H  0.05812601  0.94074174  0.65399055     0.14300
C2361       C  0.81528722  0.68043738  0.64947859    -0.05800
C2362       C  0.81590097  0.65205385  0.63879634    -0.05700
C2363       C  0.81975738  0.62689596  0.65113285    -0.23900
C2364       C  0.82269696  0.62934046  0.67445578     0.18400
C2365       C  0.82132298  0.65723438  0.68548080     0.15600
C2366       C  0.81788603  0.68272064  0.67293763    -0.18900
C2367       C  0.82355010  0.65919787  0.70886229    -0.20700
C2368       C  0.82706448  0.63377684  0.72120464    -0.13300
C2369       C  0.82897121  0.60618349  0.71040222     0.03400
C2370       C  0.82686098  0.60428006  0.68692502    -0.25400
H2371       H  0.81433789  0.64977236  0.62077934     0.08500
H2372       H  0.82065889  0.60562434  0.64239822     0.12100
H2373       H  0.81740737  0.70439651  0.68143392     0.12000
H2374       H  0.82241262  0.68031885  0.71762548     0.11800
H2375       H  0.82847099  0.63581743  0.73923127     0.12300
H2376       H  0.82781360  0.58291070  0.67833902     0.14300
C2377       C  0.90502435  0.02358106  0.63639958    -0.05800
C2378       C  0.86807406  0.00389279  0.63674765    -0.05700
C2379       C  0.85086219  0.96687973  0.63608284    -0.23900
C2380       C  0.87045592  0.94918561  0.63459418     0.18400
C2381       C  0.90764574  0.96911767  0.63587284     0.15600
C2382       C  0.92449683  0.00589426  0.63712917    -0.18900
C2383       C  0.92777816  0.95236046  0.63403703    -0.20700
C2384       C  0.91160921  0.91660993  0.62936821    -0.13300
C2385       C  0.87487521  0.89647681  0.62671065     0.03400
C2386       C  0.85404139  0.91252861  0.63035643    -0.25400
H2387       H  0.85260837  0.01711593  0.63566454     0.08500
H2388       H  0.82238082  0.95230251  0.63523052     0.12100
H2389       H  0.95303139  0.02103469  0.63644129     0.12000
H2390       H  0.95624557  0.96720635  0.63518799     0.11800
H2391       H  0.92815997  0.90470563  0.62725877     0.12300
H2392       H  0.82570307  0.89721369  0.62852676     0.14300
C2393       C  0.89460900  0.73547677  0.55162800    -0.05800
C2394       C  0.87613284  0.71693214  0.53258063    -0.05700
C2395       C  0.89435579  0.71856610  0.51304332    -0.23900
C2396       C  0.93118264  0.73874584  0.51246529     0.18400
C2397       C  0.94995994  0.75402013  0.53239898     0.15600
C2398       C  0.93146466  0.75205961  0.55191650    -0.18900
C2399       C  0.98676580  0.77415791  0.53192325    -0.20700
C2400       C  0.00454604  0.78198295  0.51157485    -0.13300
C2401       C  0.98571365  0.76964594  0.49159905     0.03400
C2402       C  0.94929967  0.74675092  0.49207578    -0.25400
H2403       H  0.84767277  0.70445133  0.53206722     0.08500
H2404       H  0.87957457  0.70637867  0.49798593     0.12100
H2405       H  0.94567512  0.76666115  0.56661688     0.12000
H2406       H  0.00155025  0.78578432  0.54707413     0.11800
H2407       H  0.03270458  0.79979501  0.51126770     0.12300
H2408       H  0.93489508  0.73743204  0.47651621     0.14300
C2409       C  0.81875358  0.79897700  0.52940437    -0.05800
C2410       C  0.84651494  0.81344197  0.51401630    -0.05700
C2411       C  0.84173120  0.82427457  0.49308019    -0.23900
C2412       C  0.80939850  0.82183457  0.48760873     0.18400
C2413       C  0.78071405  0.80590106  0.50264840     0.15600
C2414       C  0.78540143  0.79375285  0.52343106    -0.18900
C2415       C  0.74885053  0.80488311  0.49724898    -0.20700
C2416       C  0.74673761  0.82272449  0.47832681    -0.13300
C2417       C  0.77624110  0.84096045  0.46449605     0.03400
C2418       C  0.80647832  0.83815912  0.46831490    -0.25400
H2419       H  0.87216363  0.81696481  0.51843063     0.08500
H2420       H  0.86385334  0.83630739  0.48166387     0.12100
H2421       H  0.76401817  0.78245782  0.53542504     0.12000
H2422       H  0.72653385  0.79263914  0.50849201     0.11800
H2423       H  0.72330231  0.82488549  0.47564492     0.12300
H2424       H  0.82923297  0.85217818  0.45752384     0.14300
C2425       C  0.23628677  0.50103969  0.57215621    -0.05800
C2426       C  0.25154125  0.49154272  0.58960276    -0.05700
C2427       C  0.28649098  0.49917834  0.58840011    -0.23900
C2428       C  0.30718631  0.51719868  0.56990167     0.18400
C2429       C  0.29187412  0.52498647  0.55150166     0.15600
C2430       C  0.25606883  0.51613325  0.55253863    -0.18900
C2431       C  0.31350543  0.54414972  0.53337674    -0.20700
C2432       C  0.35030417  0.55849317  0.53462236    -0.13300
C2433       C  0.36558651  0.55290232  0.55371970     0.03400
C2434       C  0.34360273  0.53041296  0.57055182    -0.25400
H2435       H  0.23682113  0.47956670  0.60471965     0.08500
H2436       H  0.29790374  0.49292839  0.60257419     0.12100
H2437       H  0.24464142  0.52373172  0.53901319     0.12000
H2438       H  0.30231149  0.55024295  0.51902645     0.11800
H2439       H  0.36682058  0.57609241  0.52158439     0.12300
H2440       H  0.35537415  0.52632535  0.58537364     0.14300
C2441       C  0.40885554  0.77820615  0.55985496    -0.05800
C2442       C  0.40822183  0.76185648  0.53959016    -0.05700
C2443       C  0.42417652  0.74064189  0.53803471    -0.23900
C2444       C  0.44056199  0.73528677  0.55679048     0.18400
C2445       C  0.44340808  0.75387736  0.57665156     0.15600
C2446       C  0.42817603  0.77555191  0.57787106    -0.18900
C2447       C  0.45910671  0.74855685  0.59558310    -0.20700
C2448       C  0.46950174  0.72301723  0.59547217    -0.13300
C2449       C  0.46486547  0.70253651  0.57635266     0.03400
C2450       C  0.45186522  0.70998673  0.55665023    -0.25400
H2451       H  0.39345804  0.76351166  0.52553601     0.08500
H2452       H  0.42194127  0.72685197  0.52257342     0.12100
H2453       H  0.42910686  0.78844280  0.59353121     0.12000
H2454       H  0.46160593  0.76281428  0.61089828     0.11800
H2455       H  0.47965010  0.71810833  0.61078066     0.12300
H2456       H  0.44792924  0.69427008  0.54182490     0.14300
C2457       C  0.59239981  0.66959822  0.57963855    -0.05800
C2458       C  0.61377729  0.69171264  0.56251859    -0.05700
C2459       C  0.64969363  0.71473587  0.56638288    -0.23900
C2460       C  0.66456232  0.71628815  0.58751371     0.18400
C2461       C  0.64271023  0.69602140  0.60526372     0.15600
C2462       C  0.60686171  0.67272196  0.60116988    -0.18900
C2463       C  0.65748689  0.69800462  0.62647970    -0.20700
C2464       C  0.69406032  0.71749369  0.62960673    -0.13300
C2465       C  0.71627757  0.73523960  0.61157008     0.03400
C2466       C  0.70115088  0.73591095  0.59083573    -0.25400
H2467       H  0.60310686  0.68997944  0.54594154     0.08500
H2468       H  0.66609171  0.73042754  0.55264715     0.12100
H2469       H  0.59033913  0.65617814  0.61461583     0.12000
H2470       H  0.64095716  0.68292534  0.64034281     0.11800
H2471       H  0.70509337  0.71631190  0.64558679     0.12300
H2472       H  0.71816446  0.74960782  0.57680423     0.14300
C2473       C  0.48604909  0.51656036  0.54012441    -0.05800
C2474       C  0.48072923  0.48491592  0.54987624    -0.05700
C2475       C  0.47843824  0.45747222  0.53672972    -0.23900
C2476       C  0.48148651  0.46091497  0.51345360     0.18400
C2477       C  0.48676020  0.49233147  0.50323104     0.15600
C2478       C  0.48894864  0.51998572  0.51661671    -0.18900
C2479       C  0.48993386  0.49545102  0.47983994    -0.20700
C2480       C  0.48832617  0.46791829  0.46680794    -0.13300
C2481       C  0.48327689  0.43660794  0.47689037     0.03400
C2482       C  0.47962511  0.43343008  0.50032106    -0.25400
H2483       H  0.47829348  0.48124498  0.56780319     0.08500
H2484       H  0.47438598  0.43350953  0.54482579     0.12100
H2485       H  0.49298135  0.54408842  0.50874351     0.12000
H2486       H  0.49393277  0.51930180  0.47162654     0.11800
H2487       H  0.49117243  0.47119072  0.44887082     0.12300
H2488       H  0.47577696  0.40960676  0.50852228     0.14300
C2489       C  0.40067882  0.50383298  0.63541715    -0.05800
C2490       C  0.36412096  0.48844115  0.63230222    -0.05700
C2491       C  0.34091282  0.46921268  0.64942408    -0.23900
C2492       C  0.35407636  0.46597005  0.67009647     0.18400
C2493       C  0.39068036  0.47893175  0.67276362     0.15600
C2494       C  0.41366824  0.49685099  0.65510714    -0.18900
C2495       C  0.40404939  0.47720750  0.69375095    -0.20700
C2496       C  0.38190421  0.46614619  0.71233425    -0.13300
C2497       C  0.34607433  0.45543581  0.70991291     0.03400
C2498       C  0.33180798  0.45338173  0.68868230    -0.25400
H2499       H  0.35359832  0.49323443  0.61716533     0.08500
H2500       H  0.31296096  0.45930301  0.64706437     0.12100
H2501       H  0.44185198  0.50896239  0.65772529     0.12000
H2502       H  0.43197379  0.48697666  0.69609487     0.11800
H2503       H  0.39305050  0.46791755  0.72877760     0.12300
H2504       H  0.30416361  0.44565842  0.68702876     0.14300
C2505       C  0.51402086  0.64083111  0.66022295    -0.05800
C2506       C  0.54630456  0.67231851  0.66012857    -0.05700
C2507       C  0.55594381  0.69526640  0.67834900    -0.23900
C2508       C  0.53340468  0.68683831  0.69684545     0.18400
C2509       C  0.50242498  0.65367451  0.69775725     0.15600
C2510       C  0.49298789  0.63089643  0.67945887    -0.18900
C2511       C  0.47993930  0.64494973  0.71617997    -0.20700
C2512       C  0.48612495  0.67006845  0.73248396    -0.13300
C2513       C  0.51502220  0.70433087  0.73073483     0.03400
C2514       C  0.53974832  0.71189494  0.71352696    -0.25400
H2515       H  0.56273392  0.68035711  0.64534469     0.08500
H2516       H  0.57997261  0.72041349  0.67742036     0.12100
H2517       H  0.46808983  0.60645709  0.67954348     0.12000
H2518       H  0.45639695  0.61941189  0.71729991     0.11800
H2519       H  0.46693353  0.66326817  0.74571287     0.12300
H2520       H  0.56226034  0.73810174  0.71201415     0.14300
loop_ 
_geom_bond_atom_site_label_1 
_geom_bond_atom_site_label_2 
_geom_bond_distance 
_geom_bond_site_symmetry_2 
_ccdc_geom_bond_type 
Fe1          O17   2.068       .  S
Fe1           O7   2.049       .  S
Fe1          O14   2.044       .  S
Fe1           O6   2.060       .  S
Fe1          O12   1.930       .  S
Fe2           O5   2.065       .  S
Fe2           O9   2.068       .  S
Fe2          O13   2.086       .  S
Fe2          O18   2.066       .  S
Fe2          O12   1.944       .  S
Fe3          O21   2.096       .  S
Fe3           O8   2.099       .  S
Fe3          O15   2.108       .  S
Fe3           O4   2.098       .  S
Fe3          O12   1.951       .  S
O4           C11   1.276       .  A
O5           C19   1.272       .  A
O6           C11   1.269       .  A
O7           C10   1.267       .  A
O8           C20   1.275       .  A
O9           C22   1.267       .  A
C10          O15   1.275       .  A
C10        C2449   1.487       .  S
C11        C2433   1.477       .  S
O13          C16   1.274       .  A
O14          C16   1.267       .  A
C16        C2489   1.472       .  S
O17          C22   1.268       .  A
O18          C20   1.272       .  A
C19          O21   1.280       .  A
C19        C2457   1.483       .  S
C20        C2473   1.495       .  S
C22        C2505   1.469       .  S
Fe23         O39   2.045       .  S
Fe23         O29   2.062       .  S
Fe23         O36   2.049       .  S
Fe23         O28   2.025       .  S
Fe23         O34   1.935       .  S
Fe24         O27   2.030       .  S
Fe24         O31   2.085       .  S
Fe24         O35   2.058       .  S
Fe24         O40   2.078       .  S
Fe24         O34   1.958       .  S
Fe25         O43   2.119       .  S
Fe25         O30   2.068       .  S
Fe25         O37   2.085       .  S
Fe25         O26   2.127       .  S
Fe25         O34   1.974       .  S
O26          C33   1.282       .  A
O27          C41   1.263       .  A
O28          C33   1.266       .  A
O29          C32   1.267       .  A
O30          C42   1.271       .  A
O31          C44   1.275       .  A
C32          O37   1.269       .  A
C32        C2385   1.484       .  S
C33        C2345   1.479       .  S
O35          C38   1.262       .  A
O36          C38   1.262       .  A
C38        C2393   1.463       .  S
O39          C44   1.273       .  A
O40          C42   1.274       .  A
C41          O43   1.280       .  A
C41        C2465   1.482       .  S
C42        C2361   1.487       .  S
C44        C2409   1.459       .  S
Fe45         O61   2.051       .  S
Fe45         O51   2.072       .  S
Fe45         O58   2.056       .  S
Fe45         O50   2.065       .  S
Fe45         O56   1.932       .  S
Fe46         O49   2.070       .  S
Fe46         O53   2.080       .  S
Fe46         O57   2.065       .  S
Fe46         O62   2.075       .  S
Fe46         O56   1.939       .  S
Fe47         O65   2.076       .  S
Fe47         O52   2.100       .  S
Fe47         O59   2.097       .  S
Fe47         O48   2.094       .  S
Fe47         O56   1.944       .  S
O48          C55   1.271       .  A
O49          C63   1.267       .  A
O50          C55   1.266       .  A
O51          C54   1.271       .  A
O52          C64   1.284       .  A
O53          C66   1.274       .  A
C54          O59   1.278       .  A
C54        C2273   1.473       .  S
C55        C2281   1.482       .  S
O57          C60   1.268       .  A
O58          C60   1.269       .  A
C60        C2313   1.460       .  S
O61          C66   1.270       .  A
O62          C64   1.278       .  A
C63          O65   1.267       .  A
C63        C2369   1.486       .  S
C64        C2297   1.487       .  S
C66        C2329   1.479       .  S
Fe67         O83   2.067       .  S
Fe67         O73   2.052       .  S
Fe67         O80   2.048       .  S
Fe67         O72   2.073       .  S
Fe67         O78   1.946       .  S
Fe68         O71   2.081       .  S
Fe68         O75   2.064       .  S
Fe68         O79   2.076       .  S
Fe68         O84   2.060       .  S
Fe68         O78   1.961       .  S
Fe69         O87   2.073       .  S
Fe69         O74   2.100       .  S
Fe69         O81   2.102       .  S
Fe69         O70   2.077       .  S
Fe69         O78   1.964       .  S
O70          C77   1.266       .  A
O71          C85   1.272       .  A
O72          C77   1.270       .  A
O73          C76   1.269       .  A
O74          C86   1.278       .  A
O75          C88   1.268       .  A
C76          O81   1.280       .  A
C76        C2185   1.473       .  S
C77        C2217   1.486       .  S
O79          C82   1.271       .  A
O80          C82   1.268       .  A
C82        C2249   1.463       .  S
O83          C88   1.270       .  A
O84          C86   1.269       .  A
C85          O87   1.268       .  A
C85        C2201   1.488       .  S
C86        C2305   1.477       .  S
C88        C2233   1.480       .  S
Fe89        O105   2.068       .  S
Fe89         O95   2.072   1_565  S
Fe89        O102   2.059       .  S
Fe89         O94   2.070       .  S
Fe89        O100   1.938       .  S
Fe90         O93   2.079       .  S
Fe90         O97   2.080       .  S
Fe90        O101   2.075       .  S
Fe90        O106   2.103       .  S
Fe90        O100   1.947       .  S
Fe91        O109   2.094       .  S
Fe91         O96   2.054       .  S
Fe91        O103   2.059       .  S
Fe91         O92   2.098       .  S
Fe91        O100   1.951       .  S
O92          C99   1.285       .  A
O93         C107   1.278       .  A
O94          C99   1.277       .  A
O95          C98   1.263       .  A
O96         C108   1.261       .  A
O97         C110   1.273       .  A
C98         O103   1.259   1_545  A
C98        C2121   1.470       .  S
C99        C2113   1.472       .  S
O101        C104   1.270       .  A
O102        C104   1.268       .  A
C104       C2169   1.478       .  S
O105        C110   1.273       .  A
O106        C108   1.271       .  A
C107        O109   1.284       .  A
C107       C2137   1.484   1_565  S
C108       C2209   1.493       .  S
C110       C2153   1.470       .  S
Fe111       O127   2.056       .  S
Fe111       O117   2.065       .  S
Fe111       O124   2.054       .  S
Fe111       O116   2.068       .  S
Fe111       O122   1.936       .  S
Fe112       O115   2.079       .  S
Fe112       O119   2.064       .  S
Fe112       O123   2.083       .  S
Fe112       O128   2.070       .  S
Fe112       O122   1.938       .  S
Fe113       O131   2.094       .  S
Fe113       O118   2.074       .  S
Fe113       O125   2.098       .  S
Fe113       O114   2.097       .  S
Fe113       O122   1.946       .  S
O114        C121   1.278       .  A
O115        C129   1.278       .  A
O116        C121   1.268       .  A
O117        C120   1.267       .  A
O118        C130   1.265       .  A
O119        C132   1.267       .  A
C120        O125   1.272       .  A
C120       C2065   1.485       .  S
C121       C2033   1.471       .  S
O123        C126   1.274       .  A
O124        C126   1.271       .  A
C126       C2073   1.481       .  S
O127        C132   1.268       .  A
O128        C130   1.267       .  A
C129        O131   1.284       .  A
C129       C2145   1.480       .  S
C130       C2041   1.485       .  S
C132       C2097   1.463       .  S
Fe133       O149   2.067       .  S
Fe133       O139   2.054       .  S
Fe133       O146   2.046       .  S
Fe133       O138   2.068       .  S
Fe133       O144   1.937       .  S
Fe134       O137   2.064       .  S
Fe134       O141   2.070       .  S
Fe134       O145   2.066       .  S
Fe134       O150   2.063       .  S
Fe134       O144   1.944       .  S
Fe135       O153   2.071       .  S
Fe135       O140   2.094       .  S
Fe135       O147   2.096       .  S
Fe135       O136   2.093       .  S
Fe135       O144   1.949       .  S
O136        C143   1.272       .  A
O137        C151   1.267       .  A
O138        C143   1.269       .  A
O139        C142   1.266       .  A
O140        C152   1.282       .  A
O141        C154   1.273       .  A
C142        O147   1.275       .  A
C142       C1929   1.469       .  S
C143       C1969   1.480       .  S
O145        C148   1.267       .  A
O146        C148   1.266       .  A
C148       C2001   1.466       .  S
O149        C154   1.274       .  A
O150        C152   1.275       .  A
C151        O153   1.268       .  A
C151       C1953   1.485       .  S
C152       C1985   1.481       .  S
C154       C2009   1.480       .  S
Fe155       O171   2.050       .  S
Fe155       O161   2.078       .  S
Fe155       O168   2.056       .  S
Fe155       O160   2.066       .  S
Fe155       O166   1.939       .  S
Fe156       O159   2.092       .  S
Fe156       O163   2.078       .  S
Fe156       O167   2.074       .  S
Fe156       O172   2.080       .  S
Fe156       O166   1.950       .  S
Fe157       O175   2.057       .  S
Fe157       O162   2.086       .  S
Fe157       O169   2.087       .  S
Fe157       O158   2.074       .  S
Fe157       O166   1.950       .  S
O158        C165   1.262       .  A
O159        C173   1.268       .  A
O160        C165   1.260       .  A
O161        C164   1.277       .  A
O162        C174   1.286       .  A
O163        C176   1.273       .  A
C164        O169   1.282       .  A
C164       C1865   1.469       .  S
C165       C1881   1.477       .  S
O167        C170   1.269       .  A
O168        C170   1.268       .  A
C170       C1913   1.464       .  S
O171        C176   1.270       .  A
O172        C174   1.281       .  A
C173        O175   1.261       .  A
C173       C2481   1.494       .  S
C174       C1977   1.474       .  S
C176       C1897   1.476       .  S
Fe177       O193   2.065       .  S
Fe177       O183   2.069       .  S
Fe177       O190   2.063       .  S
Fe177       O182   2.074       .  S
Fe177       O188   1.934       .  S
Fe178       O181   2.076       .  S
Fe178       O185   2.055       .  S
Fe178       O189   2.073       .  S
Fe178       O194   2.075       .  S
Fe178       O188   1.940       .  S
Fe179       O197   2.077       .  S
Fe179       O184   2.067       .  S
Fe179       O191   2.085       .  S
Fe179       O180   2.078       .  S
Fe179       O188   1.943       .  S
O180        C187   1.277       .  A
O181        C195   1.278       .  A
O182        C187   1.274       .  A
O183        C186   1.266       .  A
O184        C196   1.265       .  A
O185        C198   1.266       .  A
C186        O191   1.268       .  A
C186       C1809   1.485       .  S
C187       C1769   1.463       .  S
O189        C192   1.272       .  A
O190        C192   1.271       .  A
C192       C1833   1.479       .  S
O193        C198   1.270       .  A
O194        C196   1.267       .  A
C195        O197   1.281       .  A
C195       C1825   1.473       .  S
C196       C1785   1.487       .  S
C198       C1857   1.456       .  S
Fe199       O215   2.045       .  S
Fe199       O205   2.053       .  S
Fe199       O212   2.057       .  S
Fe199       O204   2.069       .  S
Fe199       O210   1.934       .  S
Fe200       O203   2.066       .  S
Fe200       O207   2.069       .  S
Fe200       O211   2.062       .  S
Fe200       O216   2.060       .  S
Fe200       O210   1.951       .  S
Fe201       O219   2.091       .  S
Fe201       O206   2.066       .  S
Fe201       O213   2.083       .  S
Fe201       O202   2.084       .  S
Fe201       O210   1.963       .  S
O202        C209   1.280       .  A
O203        C217   1.279       .  A
O204        C209   1.275       .  A
O205        C208   1.259       .  A
O206        C218   1.263       .  A
O207        C220   1.266       .  A
C208        O213   1.263       .  A
C208       C1729   1.471       .  S
C209       C1705   1.468       .  S
O211        C214   1.271       .  A
O212        C214   1.272       .  A
C214       C1745   1.478       .  S
O215        C220   1.264       .  A
O216        C218   1.263       .  A
C217        O219   1.285       .  A
C217       C1817   1.473       .  S
C218       C1945   1.486       .  S
C220       C1761   1.461       .  S
Fe221       O237   2.055       .  S
Fe221       O227   2.070       .  S
Fe221       O234   2.058   1_545  S
Fe221       O226   2.062   1_545  S
Fe221       O232   1.923       .  S
Fe222       O225   2.067       .  S
Fe222       O229   2.074       .  S
Fe222       O233   2.068   1_545  S
Fe222       O238   2.068       .  S
Fe222       O232   1.936       .  S
Fe223       O241   2.081       .  S
Fe223       O228   2.100   1_545  S
Fe223       O235   2.090       .  S
Fe223       O224   2.090   1_545  S
Fe223       O232   1.946       .  S
O224        C231   1.268       .  A
O225        C239   1.269       .  A
O226        C231   1.265       .  A
O227        C230   1.273       .  A
O228        C240   1.282       .  A
O229        C242   1.271       .  A
C230        O235   1.279       .  A
C230       C1625   1.469       .  S
C231       C1649   1.480       .  S
O233        C236   1.270       .  A
O234        C236   1.271       .  A
C236       C1697   1.461       .  S
O237        C242   1.270       .  A
O238        C240   1.274   1_545  A
C239        O241   1.269       .  A
C239       C1793   1.486       .  S
C240       C1657   1.484       .  S
C242       C1681   1.479       .  S
Fe243       O259   2.055       .  S
Fe243       O249   2.085       .  S
Fe243       O256   2.058       .  S
Fe243       O248   2.062       .  S
Fe243       O254   1.930       .  S
Fe244       O247   2.073       .  S
Fe244       O251   2.072       .  S
Fe244       O255   2.062       .  S
Fe244       O260   2.083       .  S
Fe244       O254   1.942       .  S
Fe245       O263   2.054       .  S
Fe245       O250   2.085       .  S
Fe245       O257   2.086       .  S
Fe245       O246   2.060       .  S
Fe245       O254   1.945       .  S
O246        C253   1.258       .  A
O247        C261   1.262       .  A
O248        C253   1.258       .  A
O249        C252   1.282       .  A
O250        C262   1.287       .  A
O251        C264   1.272       .  A
C252        O257   1.286       .  A
C252       C1561   1.471       .  S
C253       C1585   1.474       .  S
O255        C258   1.266       .  A
O256        C258   1.268       .  A
C258       C1601   1.462       .  S
O259        C264   1.270       .  A
O260        C262   1.283       .  A
C261        O263   1.259       .  A
C261       C2049   1.484       .  S
C262       C1665   1.471       .  S
C264       C1609   1.480       .  S
Fe265       O281   2.055       .  S
Fe265       O271   2.077       .  S
Fe265       O278   2.056       .  S
Fe265       O270   2.070       .  S
Fe265       O276   1.941       .  S
Fe266       O269   2.082       .  S
Fe266       O273   2.073       .  S
Fe266       O277   2.073       .  S
Fe266       O282   2.077       .  S
Fe266       O276   1.949       .  S
Fe267       O285   2.060       .  S
Fe267       O272   2.088       .  S
Fe267       O279   2.086       .  S
Fe267       O268   2.077       .  S
Fe267       O276   1.947       .  S
O268        C275   1.264       .  A
O269        C283   1.267       .  A
O270        C275   1.262       .  A
O271        C274   1.275       .  A
O272        C284   1.286       .  A
O273        C286   1.272       .  A
C274        O279   1.281       .  A
C274       C1889   1.468       .  S
C275       C1521   1.483       .  S
O277        C280   1.269       .  A
O278        C280   1.268       .  A
C280       C1841   1.463       .  S
O281        C286   1.270       .  A
O282        C284   1.280       .  A
C283        O285   1.262       .  A
C283       C1505   1.489       .  S
C284       C1537   1.479       .  S
C286       C1545   1.479       .  S
Fe287       O303   2.057       .  S
Fe287       O293   2.014       .  S
Fe287       O300   2.045       .  S
Fe287       O292   2.062       .  S
Fe287       O298   1.935       .  S
Fe288       O291   2.093       .  S
Fe288       O295   2.061       .  S
Fe288       O299   2.104       .  S
Fe288       O304   2.031       .  S
Fe288       O298   1.958       .  S
Fe289       O307   2.038       .  S
Fe289       O294   2.124       .  S
Fe289       O301   2.153       .  S
Fe289       O290   2.061       .  S
Fe289       O298   1.949       .  S
O290        C297   1.257   1_565  A
O291        C305   1.271       .  A
O292        C297   1.261   1_565  A
O293        C296   1.271       .  A
O294        C306   1.287       .  A
O295        C308   1.265       .  A
C296        O301   1.294       .  A
C296       C1449   1.484       .  S
C297       C1937   1.472       .  S
O299        C302   1.278       .  A
O300        C302   1.271       .  A
C302       C1481   1.462       .  S
O303        C308   1.266       .  A
O304        C306   1.269       .  A
C305        O307   1.262       .  A
C305       C1465   1.487       .  S
C306       C1529   1.480   1_565  S
C308       C2417   1.466       .  S
Fe309       O325   2.056       .  S
Fe309       O315   2.069       .  S
Fe309       O322   2.074       .  S
Fe309       O314   2.062       .  S
Fe309       O320   1.925       .  S
Fe310       O313   2.042       .  S
Fe310       O317   2.074       .  S
Fe310       O321   2.058       .  S
Fe310       O326   2.063       .  S
Fe310       O320   1.943       .  S
Fe311       O329   2.094       .  S
Fe311       O316   2.084       .  S
Fe311       O323   2.085       .  S
Fe311       O312   2.089       .  S
Fe311       O320   1.947       .  S
O312        C319   1.272       .  A
O313        C327   1.267       .  A
O314        C319   1.269       .  A
O315        C318   1.272       .  A
O316        C328   1.274       .  A
O317        C330   1.271       .  A
C318        O323   1.276       .  A
C318       C1393   1.471       .  S
C319       C1569   1.485       .  S
O321        C324   1.267       .  A
O322        C324   1.272       .  A
C324       C1433   1.461       .  S
O325        C330   1.268       .  A
O326        C328   1.269       .  A
C327        O329   1.274       .  A
C327       C1425   1.481       .  S
C328       C1409   1.465       .  S
C330       C1753   1.472       .  S
Fe331       O347   2.045       .  S
Fe331       O337   2.075       .  S
Fe331       O344   2.055       .  S
Fe331       O336   2.058   1_655  S
Fe331       O342   1.928       .  S
Fe332       O335   2.092       .  S
Fe332       O339   2.085       .  S
Fe332       O343   2.083       .  S
Fe332       O348   2.073       .  S
Fe332       O342   1.947       .  S
Fe333       O351   2.067       .  S
Fe333       O338   2.084   1_655  S
Fe333       O345   2.085       .  S
Fe333       O334   2.072   1_655  S
Fe333       O342   1.950       .  S
O334        C341   1.262       .  A
O335        C349   1.273       .  A
O336        C341   1.261       .  A
O337        C340   1.277       .  A
O338        C350   1.280       .  A
O339        C352   1.274       .  A
C340        O345   1.281       .  A
C340       C1641   1.470       .  S
C341       C1361   1.475       .  S
O343        C346   1.272       .  A
O344        C346   1.268       .  A
C346       C2177   1.467   1_655  S
O347        C352   1.268       .  A
O348        C350   1.277   1_655  A
C349        O351   1.265       .  A
C349       C1337   1.492       .  S
C350       C1401   1.477       .  S
C352       C1369   1.478       .  S
Fe353       O369   2.051       .  S
Fe353       O359   2.074       .  S
Fe353       O366   2.064       .  S
Fe353       O358   2.070       .  S
Fe353       O364   1.939       .  S
Fe354       O357   2.069       .  S
Fe354       O361   2.084       .  S
Fe354       O365   2.074       .  S
Fe354       O370   2.100       .  S
Fe354       O364   1.948       .  S
Fe355       O373   2.101       .  S
Fe355       O360   2.053       .  S
Fe355       O367   2.064       .  S
Fe355       O356   2.100       .  S
Fe355       O364   1.945       .  S
O356        C363   1.284       .  A
O357        C371   1.276       .  A
O358        C363   1.275       .  A
O359        C362   1.263       .  A
O360        C372   1.262       .  A
O361        C374   1.273       .  A
C362        O367   1.261       .  A
C362       C1297   1.472       .  S
C363       C1801   1.472       .  S
O365        C368   1.272       .  A
O366        C368   1.271       .  A
C368       C1321   1.485       .  S
O369        C374   1.269       .  A
O370        C372   1.271       .  A
C371        O373   1.285       .  A
C371       C1305   1.477       .  S
C372       C1345   1.492       .  S
C374       C1905   1.466       .  S
Fe375       O391   2.063       .  S
Fe375       O381   2.071       .  S
Fe375       O388   2.056       .  S
Fe375       O380   2.057       .  S
Fe375       O386   1.937       .  S
Fe376       O379   2.066       .  S
Fe376       O383   2.081       .  S
Fe376       O387   2.065       .  S
Fe376       O392   2.085       .  S
Fe376       O386   1.955       .  S
Fe377       O395   2.097       .  S
Fe377       O382   2.066       .  S
Fe377       O389   2.065       .  S
Fe377       O378   2.102       .  S
Fe377       O386   1.950       .  S
O378        C385   1.281       .  A
O379        C393   1.271       .  A
O380        C385   1.271       .  A
O381        C384   1.269       .  A
O382        C394   1.268       .  A
O383        C396   1.272       .  A
C384        O389   1.265       .  A
C384       C1713   1.479       .  S
C385       C1257   1.476       .  S
O387        C390   1.269       .  A
O388        C390   1.268       .  A
C390       C1593   1.466       .  S
O391        C396   1.270       .  A
O392        C394   1.272       .  A
C393        O395   1.279       .  A
C393       C1313   1.479       .  S
C394       C1473   1.490       .  S
C396       C1273   1.472       .  S
Fe397       O413   2.065       .  S
Fe397       O403   2.059   1_455  S
Fe397       O410   2.049       .  S
Fe397       O402   2.070       .  S
Fe397       O408   1.924       .  S
Fe398       O401   2.081       .  S
Fe398       O405   2.065       .  S
Fe398       O409   2.084       .  S
Fe398       O414   2.081       .  S
Fe398       O408   1.932       .  S
Fe399       O417   2.084   1_455  S
Fe399       O404   2.067       .  S
Fe399       O411   2.088   1_455  S
Fe399       O400   2.088       .  S
Fe399       O408   1.939       .  S
O400        C407   1.278       .  A
O401        C415   1.279   1_455  A
O402        C407   1.273       .  A
O403        C406   1.265       .  A
O404        C416   1.265       .  A
O405        C418   1.269       .  A
C406        O411   1.268       .  A
C406       C1217   1.475       .  S
C407       C2129   1.468       .  S
O409        C412   1.275       .  A
O410        C412   1.269       .  A
C412       C1241   1.480       .  S
O413        C418   1.270       .  A
O414        C416   1.269       .  A
C415        O417   1.282       .  A
C415       C1233   1.483       .  S
C416       C1201   1.479       .  S
C418       C1673   1.461   1_455  S
Fe419       O435   2.058       .  S
Fe419       O425   2.077       .  S
Fe419       O432   2.050       .  S
Fe419       O424   2.067       .  S
Fe419       O430   1.936       .  S
Fe420       O423   2.068       .  S
Fe420       O427   2.057       .  S
Fe420       O431   2.067       .  S
Fe420       O436   2.054       .  S
Fe420       O430   1.957       .  S
Fe421       O439   2.098       .  S
Fe421       O426   2.073       .  S
Fe421       O433   2.067       .  S
Fe421       O422   2.099       .  S
Fe421       O430   1.944       .  S
O422        C429   1.283       .  A
O423        C437   1.272       .  A
O424        C429   1.274       .  A
O425        C428   1.266       .  A
O426        C438   1.267       .  A
O427        C440   1.267       .  A
C428        O433   1.264       .  A
C428       C2025   1.482       .  S
C429       C1169   1.473       .  S
O431        C434   1.268       .  A
O432        C434   1.269       .  A
C434       C2321   1.477       .  S
O435        C440   1.271       .  A
O436        C438   1.263       .  A
C437        O439   1.281       .  A
C437       C1225   1.474       .  S
C438       C1417   1.480       .  S
C440       C1185   1.454       .  S
Fe441       O457   2.056       .  S
Fe441       O447   2.070       .  S
Fe441       O454   2.045       .  S
Fe441       O446   2.073       .  S
Fe441       O452   1.930       .  S
Fe442       O445   2.089       .  S
Fe442       O449   2.087       .  S
Fe442       O453   2.072       .  S
Fe442       O458   2.087       .  S
Fe442       O452   1.951       .  S
Fe443       O461   2.042       .  S
Fe443       O448   2.098       .  S
Fe443       O455   2.107       .  S
Fe443       O444   2.053       .  S
Fe443       O452   1.941       .  S
O444        C451   1.257       .  A
O445        C459   1.266       .  A
O446        C451   1.260       .  A
O447        C450   1.281       .  A
O448        C460   1.289       .  A
O449        C462   1.273       .  A
C450        O455   1.290       .  A
C450       C2225   1.479       .  S
C451       C1113   1.480       .  S
O453        C456   1.269       .  A
O454        C456   1.268       .  A
C456       C2497   1.456       .  S
O457        C462   1.270       .  A
O458        C460   1.283       .  A
C459        O461   1.256       .  A
C459       C1193   1.477       .  S
C460       C1137   1.486       .  S
C462       C1145   1.487       .  S
Fe463       O479   2.050       .  S
Fe463       O469   2.072       .  S
Fe463       O476   2.050       .  S
Fe463       O468   2.066       .  S
Fe463       O474   1.939       .  S
Fe464       O467   2.070       .  S
Fe464       O471   2.072       .  S
Fe464       O475   2.053       .  S
Fe464       O480   2.076       .  S
Fe464       O474   1.949       .  S
Fe465       O483   2.071       .  S
Fe465       O470   2.098       .  S
Fe465       O477   2.091       .  S
Fe465       O466   2.085       .  S
Fe465       O474   1.952       .  S
O466        C473   1.265       .  A
O467        C481   1.264       .  A
O468        C473   1.261       .  A
O469        C472   1.276       .  A
O470        C482   1.288       .  A
O471        C484   1.273       .  A
C472        O477   1.282       .  A
C472       C1073   1.470       .  S
C473       C2265   1.486       .  S
O475        C478   1.264       .  A
O476        C478   1.267       .  A
C478       C1097   1.452       .  S
O479        C484   1.270       .  A
O480        C482   1.280       .  A
C481        O483   1.263       .  A
C481       C1081   1.491       .  S
C482       C1129   1.480       .  S
C484       C2089   1.478       .  S
Fe485       O501   2.052   1_545  S
Fe485       O491   2.057   1_545  S
Fe485       O498   2.046       .  S
Fe485       O490   2.063       .  S
Fe485       O496   1.930       .  S
Fe486       O489   2.061       .  S
Fe486       O493   2.076       .  S
Fe486       O497   2.071       .  S
Fe486       O502   2.064       .  S
Fe486       O496   1.942       .  S
Fe487       O505   2.092   1_545  S
Fe487       O492   2.087       .  S
Fe487       O499   2.095   1_545  S
Fe487       O488   2.094       .  S
Fe487       O496   1.950       .  S
O488        C495   1.277       .  A
O489        C503   1.274   1_545  A
O490        C495   1.269       .  A
O491        C494   1.266       .  A
O492        C504   1.270       .  A
O493        C506   1.268   1_545  A
C494        O499   1.270       .  A
C494       C2353   1.472       .  S
C495       C1017   1.470       .  S
O497        C500   1.273       .  A
O498        C500   1.271       .  A
C500       C1993   1.475       .  S
O501        C506   1.266       .  A
O502        C504   1.267       .  A
C503        O505   1.281       .  A
C503       C1041   1.477       .  S
C504       C1089   1.492       .  S
C506       C1049   1.467       .  S
Fe507       O523   2.056       .  S
Fe507       O513   2.069       .  S
Fe507       O520   2.070       .  S
Fe507       O512   2.052       .  S
Fe507       O518   1.943       .  S
Fe508       O511   2.043       .  S
Fe508       O515   2.079       .  S
Fe508       O519   2.050       .  S
Fe508       O524   2.067       .  S
Fe508       O518   1.968       .  S
Fe509       O527   2.115       .  S
Fe509       O514   2.056       .  S
Fe509       O521   2.061       .  S
Fe509       O510   2.111       .  S
Fe509       O518   1.965       .  S
O510        C517   1.286       .  A
O511        C525   1.275       .  A
O512        C517   1.276       .  A
O513        C516   1.262       .  A
O514        C526   1.260       .  A
O515        C528   1.268       .  A
C516        O521   1.261       .  A
C516        C985   1.484       .  S
C517       C2441   1.481       .  S
O519        C522   1.267       .  A
O520        C522   1.273       .  A
C522       C1009   1.471       .  S
O523        C528   1.265       .  A
O524        C526   1.263       .  A
C525        O527   1.289       .  A
C525       C1033   1.474       .  S
C526       C1497   1.488       .  S
C528       C2241   1.466       .  S
Fe529       O545   2.053       .  S
Fe529       O535   2.069       .  S
Fe529       O542   2.053       .  S
Fe529       O534   2.066       .  S
Fe529       O540   1.939       .  S
Fe530       O533   2.081       .  S
Fe530       O537   2.083       .  S
Fe530       O541   2.069       .  S
Fe530       O546   2.080       .  S
Fe530       O540   1.940       .  S
Fe531       O549   2.069       .  S
Fe531       O536   2.087       .  S
Fe531       O543   2.086       .  S
Fe531       O532   2.102       .  S
Fe531       O540   1.951       .  S
O532        C539   1.271       .  A
O533        C547   1.268       .  A
O534        C539   1.265       .  A
O535        C538   1.269       .  A
O536        C548   1.285       .  A
O537        C550   1.275       .  A
C538        O543   1.275       .  A
C538       C1121   1.466       .  S
C539       C2193   1.480       .  S
O541        C544   1.268       .  A
O542        C544   1.268       .  A
C544       C1001   1.464       .  S
O545        C550   1.271       .  A
O546        C548   1.280       .  A
C547        O549   1.264       .  A
C547        C953   1.491       .  S
C548        C977   1.478       .  S
C550       C2513   1.482       .  S
Fe551       O567   2.044       .  S
Fe551       O557   2.072       .  S
Fe551       O564   2.064       .  S
Fe551       O556   2.057       .  S
Fe551       O562   1.935       .  S
Fe552       O555   2.069       .  S
Fe552       O559   2.075       .  S
Fe552       O563   2.069       .  S
Fe552       O568   2.066       .  S
Fe552       O562   1.943       .  S
Fe553       O571   2.075       .  S
Fe553       O558   2.090       .  S
Fe553       O565   2.094       .  S
Fe553       O554   2.094       .  S
Fe553       O562   1.946       .  S
O554        C561   1.271       .  A
O555        C569   1.268       .  A
O556        C561   1.267       .  A
O557        C560   1.270       .  A
O558        C570   1.281       .  A
O559        C572   1.272       .  A
C560        O565   1.277       .  A
C560       C2289   1.474       .  S
C561       C1065   1.483       .  S
O563        C566   1.268       .  A
O564        C566   1.269       .  A
C566       C2081   1.467       .  S
O567        C572   1.268       .  A
O568        C570   1.275       .  A
C569        O571   1.268       .  A
C569        C937   1.485       .  S
C570        C969   1.476       .  S
C572       C1177   1.470       .  S
Fe573       O589   2.057       .  S
Fe573       O579   2.054       .  S
Fe573       O586   2.053       .  S
Fe573       O578   2.065       .  S
Fe573       O584   1.928       .  S
Fe574       O577   2.055       .  S
Fe574       O581   2.089       .  S
Fe574       O585   2.068       .  S
Fe574       O590   2.075       .  S
Fe574       O584   1.941       .  S
Fe575       O593   2.104       .  S
Fe575       O580   2.081       .  S
Fe575       O587   2.103       .  S
Fe575       O576   2.102       .  S
Fe575       O584   1.947       .  S
O576        C583   1.278       .  A
O577        C591   1.271       .  A
O578        C583   1.269       .  A
O579        C582   1.267       .  A
O580        C592   1.270       .  A
O581        C594   1.273       .  A
C582        O587   1.272       .  A
C582       C2425   1.485       .  S
C583        C993   1.475       .  S
O585        C588   1.270       .  A
O586        C588   1.270       .  A
C588       C2257   1.477       .  S
O589        C594   1.269       .  A
O590        C592   1.272       .  A
C591        O593   1.282       .  A
C591        C929   1.480       .  S
C592        C905   1.490       .  S
C594       C1153   1.480       .  S
Fe595       O611   2.065       .  S
Fe595       O601   2.065   1_655  S
Fe595       O608   2.053       .  S
Fe595       O600   2.064       .  S
Fe595       O606   1.935       .  S
Fe596       O599   2.069       .  S
Fe596       O603   2.072       .  S
Fe596       O607   2.074       .  S
Fe596       O612   2.073       .  S
Fe596       O606   1.952       .  S
Fe597       O615   2.087       .  S
Fe597       O602   2.076       .  S
Fe597       O609   2.079       .  S
Fe597       O598   2.092       .  S
Fe597       O606   1.950       .  S
O598        C605   1.277       .  A
O599        C613   1.271       .  A
O600        C605   1.272       .  A
O601        C604   1.268       .  A
O602        C614   1.270       .  A
O603        C616   1.270       .  A
C604        O609   1.269   1_455  A
C604       C1025   1.482       .  S
C605       C2377   1.474       .  S
O607        C610   1.270       .  A
O608        C610   1.268       .  A
C610       C1489   1.474       .  S
O611        C616   1.270       .  A
O612        C614   1.271       .  A
C613        O615   1.276       .  A
C613        C921   1.472   1_655  S
C614        C945   1.485       .  S
C616       C2017   1.465       .  S
Fe617       O633   2.064       .  S
Fe617       O623   2.075       .  S
Fe617       O630   2.052       .  S
Fe617       O622   2.069       .  S
Fe617       O628   1.934       .  S
Fe618       O621   2.063       .  S
Fe618       O625   2.068       .  S
Fe618       O629   2.060       .  S
Fe618       O634   2.067       .  S
Fe618       O628   1.950       .  S
Fe619       O637   2.103       .  S
Fe619       O624   2.076       .  S
Fe619       O631   2.079       .  S
Fe619       O620   2.098       .  S
Fe619       O628   1.947       .  S
O620        C627   1.282       .  A
O621        C635   1.272       .  A
O622        C627   1.274       .  A
O623        C626   1.267       .  A
O624        C636   1.268       .  A
O625        C638   1.270       .  A
C626        O631   1.266       .  A
C626       C1161   1.483       .  S
C627       C2057   1.474       .  S
O629        C632   1.267       .  A
O630        C632   1.269       .  A
C632       C1105   1.472       .  S
O633        C638   1.271       .  A
O634        C636   1.268       .  A
C635        O637   1.282       .  A
C635        C873   1.479       .  S
C636        C889   1.486       .  S
C638       C2337   1.464       .  S
Fe639       O655   2.063       .  S
Fe639       O645   2.058       .  S
Fe639       O652   2.050       .  S
Fe639       O644   2.066       .  S
Fe639       O650   1.936       .  S
Fe640       O643   2.068       .  S
Fe640       O647   2.069       .  S
Fe640       O651   2.075       .  S
Fe640       O656   2.066       .  S
Fe640       O650   1.948       .  S
Fe641       O659   2.096       .  S
Fe641       O646   2.089       .  S
Fe641       O653   2.097       .  S
Fe641       O642   2.087       .  S
Fe641       O650   1.955       .  S
O642        C649   1.277       .  A
O643        C657   1.274       .  A
O644        C649   1.272       .  A
O645        C648   1.266       .  A
O646        C658   1.270       .  A
O647        C660   1.268       .  A
C648        O653   1.270       .  A
C648       C2105   1.482       .  S
C649       C1209   1.468       .  S
O651        C654   1.271       .  A
O652        C654   1.269       .  A
C654       C1689   1.477       .  S
O655        C660   1.269       .  A
O656        C658   1.268       .  A
C657        O659   1.281       .  A
C657        C881   1.479       .  S
C658        C961   1.491       .  S
C660       C1377   1.465       .  S
Fe661       O677   2.065       .  S
Fe661       O667   2.068       .  S
Fe661       O674   2.055       .  S
Fe661       O666   2.057       .  S
Fe661       O672   1.932       .  S
Fe662       O665   2.074       .  S
Fe662       O669   2.080       .  S
Fe662       O673   2.071       .  S
Fe662       O678   2.081       .  S
Fe662       O672   1.935       .  S
Fe663       O681   2.064       .  S
Fe663       O668   2.078       .  S
Fe663       O675   2.074       .  S
Fe663       O664   2.101       .  S
Fe663       O672   1.953       .  S
O664        C671   1.272       .  A
O665        C679   1.268       .  A
O666        C671   1.266       .  A
O667        C670   1.269       .  A
O668        C680   1.281       .  A
O669        C682   1.274       .  A
C670        O675   1.271       .  A
C670       C1577   1.460       .  S
C671       C1385   1.476       .  S
O673        C676   1.271       .  A
O674        C676   1.269       .  A
C676       C1737   1.472       .  S
O677        C682   1.272       .  A
O678        C680   1.279       .  A
C679        O681   1.265       .  A
C679        C897   1.484       .  S
C680        C857   1.479       .  S
C682       C1281   1.486       .  S
Fe683       O699   2.044       .  S
Fe683       O689   2.075       .  S
Fe683       O696   2.064       .  S
Fe683       O688   2.068       .  S
Fe683       O694   1.934       .  S
Fe684       O687   2.085       .  S
Fe684       O691   2.095       .  S
Fe684       O695   2.064       .  S
Fe684       O700   2.086       .  S
Fe684       O694   1.945       .  S
Fe685       O703   2.059       .  S
Fe685       O690   2.073       .  S
Fe685       O697   2.075       .  S
Fe685       O686   2.072       .  S
Fe685       O694   1.952       .  S
O686        C693   1.264       .  A
O687        C701   1.269       .  A
O688        C693   1.263       .  A
O689        C692   1.278       .  A
O690        C702   1.281       .  A
O691        C704   1.275       .  A
C692        O697   1.278       .  A
C692       C1353   1.464       .  S
C693       C1633   1.482       .  S
O695        C698   1.269       .  A
O696        C698   1.271       .  A
C698       C1249   1.462       .  S
O699        C704   1.267       .  A
O700        C702   1.280       .  A
C701        O703   1.262       .  A
C701        C849   1.483       .  S
C702        C865   1.470       .  S
C704       C2161   1.483       .  S
Fe705       O721   2.052       .  S
Fe705       O711   2.071       .  S
Fe705       O718   2.064       .  S
Fe705       O710   2.066       .  S
Fe705       O716   1.938       .  S
Fe706       O709   2.083       .  S
Fe706       O713   2.066       .  S
Fe706       O717   2.079       .  S
Fe706       O722   2.068       .  S
Fe706       O716   1.938       .  S
Fe707       O725   2.066       .  S
Fe707       O712   2.100       .  S
Fe707       O719   2.099       .  S
Fe707       O708   2.089       .  S
Fe707       O716   1.943       .  S
O708        C715   1.270       .  A
O709        C723   1.269       .  A
O710        C715   1.267       .  A
O711        C714   1.269       .  A
O712        C724   1.285       .  A
O713        C726   1.272       .  A
C714        O719   1.278       .  A
C714       C1513   1.473       .  S
C715       C1873   1.481       .  S
O717        C720   1.271       .  A
O718        C720   1.270       .  A
C720       C1329   1.471       .  S
O721        C726   1.270       .  A
O722        C724   1.276       .  A
C723        O725   1.265       .  A
C723        C913   1.490       .  S
C724        C825   1.484       .  S
C726       C1849   1.473       .  S
Fe727       O743   2.061       .  S
Fe727       O733   2.064       .  S
Fe727       O740   2.054   1_455  S
Fe727       O732   2.061   1_455  S
Fe727       O738   1.946       .  S
Fe728       O731   2.058       .  S
Fe728       O735   2.068       .  S
Fe728       O739   2.060       .  S
Fe728       O744   2.065       .  S
Fe728       O738   1.966       .  S
Fe729       O747   2.072       .  S
Fe729       O734   2.101   1_455  S
Fe729       O741   2.092       .  S
Fe729       O730   2.086   1_455  S
Fe729       O738   1.969       .  S
O730        C737   1.265       .  A
O731        C745   1.264       .  A
O732        C737   1.263       .  A
O733        C736   1.274       .  A
O734        C746   1.284       .  A
O735        C748   1.270       .  A
C736        O741   1.280       .  A
C736       C1961   1.471       .  S
C737       C1457   1.484       .  S
O739        C742   1.265       .  A
O740        C742   1.267   1_655  A
C742       C2401   1.458   1_455  S
O743        C748   1.270       .  A
O744        C746   1.275   1_455  A
C745        O747   1.265       .  A
C745        C809   1.486       .  S
C746        C833   1.477       .  S
C748       C1057   1.477       .  S
Fe749       O765   2.044       .  S
Fe749       O755   2.066       .  S
Fe749       O762   2.042       .  S
Fe749       O754   2.028       .  S
Fe749       O760   1.933       .  S
Fe750       O753   2.024       .  S
Fe750       O757   2.093       .  S
Fe750       O761   2.059       .  S
Fe750       O766   2.080       .  S
Fe750       O760   1.961       .  S
Fe751       O769   2.111       .  S
Fe751       O756   2.062       .  S
Fe751       O763   2.083       .  S
Fe751       O752   2.118       .  S
Fe751       O760   1.973       .  S
O752        C759   1.281       .  A
O753        C767   1.262       .  A
O754        C759   1.266       .  A
O755        C758   1.268       .  A
O756        C768   1.272       .  A
O757        C770   1.278       .  A
C758        O763   1.269       .  A
C758       C1265   1.488       .  S
C759       C1721   1.476       .  S
O761        C764   1.260       .  A
O762        C764   1.262       .  A
C764       C1441   1.467       .  S
O765        C770   1.274       .  A
O766        C768   1.275       .  A
C767        O769   1.277       .  A
C767        C793   1.478       .  S
C768        C817   1.487       .  S
C770       C1617   1.469       .  S
Fe771       O787   2.066       .  S
Fe771       O777   2.075       .  S
Fe771       O784   2.057       .  S
Fe771       O776   2.069       .  S
Fe771       O782   1.938       .  S
Fe772       O775   2.079       .  S
Fe772       O779   2.069       .  S
Fe772       O783   2.073       .  S
Fe772       O788   2.086       .  S
Fe772       O782   1.943       .  S
Fe773       O791   2.077       .  S
Fe773       O778   2.058       .  S
Fe773       O785   2.060       .  S
Fe773       O774   2.086       .  S
Fe773       O782   1.947       .  S
O774        C781   1.280       .  A
O775        C789   1.279       .  A
O776        C781   1.275       .  A
O777        C780   1.266       .  A
O778        C790   1.262       .  A
O779        C792   1.269       .  A
C780        O785   1.262       .  A
C780       C1777   1.472       .  S
C781       C1289   1.465       .  S
O783        C786   1.272       .  A
O784        C786   1.269       .  A
C786       C1921   1.475       .  S
O787        C792   1.271       .  A
O788        C790   1.268       .  A
C789        O791   1.281       .  A
C789        C801   1.475       .  S
C790        C841   1.483       .  S
C792       C1553   1.467       .  S
C793        C794   1.402       .  A
C793        C798   1.411       .  A
C794        C795   1.402       .  A
C794        H803   1.083       .  S
C795        C796   1.407       .  A
C795        H804   1.084       .  S
C796        C802   1.403   1_565  A
C796        C797   1.411       .  A
C797        C799   1.407       .  A
C797        C798   1.402       .  A
C798        H805   1.085       .  S
C799        C800   1.401   1_565  A
C799        H806   1.084       .  S
C800        C801   1.401       .  A
C800        H807   1.083       .  S
C801        C802   1.409       .  A
C802        H808   1.084       .  S
C809        C810   1.406       .  A
C809        C814   1.410       .  A
C810        C811   1.397       .  A
C810        H819   1.083       .  S
C811        C812   1.401       .  A
C811        H820   1.084       .  S
C812        C818   1.404       .  A
C812        C813   1.413       .  A
C813        C815   1.403       .  A
C813        C814   1.407       .  A
C814        H821   1.085       .  S
C815        C816   1.400       .  A
C815        H822   1.084       .  S
C816        C817   1.408       .  A
C816        H823   1.083       .  S
C817        C818   1.408       .  A
C818        H824   1.085       .  S
C825        C826   1.402       .  A
C825        C830   1.412       .  A
C826        C827   1.405       .  A
C826        H835   1.083       .  S
C827        C828   1.409       .  A
C827        H836   1.084       .  S
C828        C834   1.406       .  A
C828        C829   1.410       .  A
C829        C831   1.408       .  A
C829        C830   1.403       .  A
C830        H837   1.085       .  S
C831        C832   1.402       .  A
C831        H838   1.083       .  S
C832        C833   1.400       .  A
C832        H839   1.083       .  S
C833        C834   1.412       .  A
C834        H840   1.085       .  S
C841        C842   1.408       .  A
C841        C846   1.405       .  A
C842        C843   1.396       .  A
C842        H851   1.083       .  S
C843        C844   1.399       .  A
C843        H852   1.083       .  S
C844        C850   1.408       .  A
C844        C845   1.416       .  A
C845        C847   1.400       .  A
C845        C846   1.409       .  A
C846        H853   1.084       .  S
C847        C848   1.397       .  A
C847        H854   1.083       .  S
C848        C849   1.409       .  A
C848        H855   1.083       .  S
C849        C850   1.404       .  A
C850        H856   1.084       .  S
C857        C858   1.403       .  A
C857        C862   1.409       .  A
C858        C859   1.401       .  A
C858        H867   1.083       .  S
C859        C860   1.406       .  A
C859        H868   1.083       .  S
C860        C866   1.403       .  A
C860        C861   1.412       .  A
C861        C863   1.406       .  A
C861        C862   1.403       .  A
C862        H869   1.084       .  S
C863        C864   1.400       .  A
C863        H870   1.083       .  S
C864        C865   1.400       .  A
C864        H871   1.083       .  S
C865        C866   1.407       .  A
C866        H872   1.083       .  S
C873        C874   1.401       .  A
C873        C878   1.411       .  A
C874        C875   1.405       .  A
C874        H883   1.083       .  S
C875        C876   1.409       .  A
C875        H884   1.083       .  S
C876        C882   1.405       .  A
C876        C877   1.410       .  A
C877        C879   1.409       .  A
C877        C878   1.404       .  A
C878        H885   1.081       .  S
C879        C880   1.403       .  A
C879        H886   1.083       .  S
C880        C881   1.401       .  A
C880        H887   1.083       .  S
C881        C882   1.411       .  A
C882        H888   1.084       .  S
C889        C890   1.406       .  A
C889        C894   1.410   1_556  A
C890        C891   1.399       .  A
C890        H899   1.083       .  S
C891        C892   1.403   1_556  A
C891        H900   1.083       .  S
C892        C898   1.403       .  A
C892        C893   1.411       .  A
C893        C895   1.404       .  A
C893        C894   1.404       .  A
C894        H901   1.084       .  S
C895        C896   1.400       .  A
C895        H902   1.083       .  S
C896        C897   1.405       .  A
C896        H903   1.083       .  S
C897        C898   1.410       .  A
C898        H904   1.084       .  S
C905        C906   1.406       .  A
C905        C910   1.413       .  A
C906        C907   1.399   1_455  A
C906        H915   1.083       .  S
C907        C908   1.404       .  A
C907        H916   1.083       .  S
C908        C914   1.405       .  A
C908        C909   1.411       .  A
C909        C911   1.406       .  A
C909        C910   1.408   1_655  A
C910        H917   1.084       .  S
C911        C912   1.402       .  A
C911        H918   1.083   1_655  S
C912        C913   1.406       .  A
C912        H919   1.083       .  S
C913        C914   1.412       .  A
C914        H920   1.084       .  S
C921        C922   1.400       .  A
C921        C926   1.409       .  A
C922        C923   1.400       .  A
C922        H931   1.083       .  S
C923        C924   1.406       .  A
C923        H932   1.084       .  S
C924        C930   1.400       .  A
C924        C925   1.411       .  A
C925        C927   1.409       .  A
C925        C926   1.406       .  A
C926        H933   1.083       .  S
C927        C928   1.406       .  A
C927        H934   1.084       .  S
C928        C929   1.401       .  A
C928        H935   1.083       .  S
C929        C930   1.411       .  A
C930        H936   1.084       .  S
C937        C938   1.406       .  A
C937        C942   1.410       .  A
C938        C939   1.399       .  A
C938        H947   1.083       .  S
C939        C940   1.403       .  A
C939        H948   1.084       .  S
C940        C946   1.405       .  A
C940        C941   1.412       .  A
C941        C943   1.404       .  A
C941        C942   1.405       .  A
C942        H949   1.084       .  S
C943        C944   1.400       .  A
C943        H950   1.084       .  S
C944        C945   1.405       .  A
C944        H951   1.083       .  S
C945        C946   1.410       .  A
C946        H952   1.084       .  S
C953        C954   1.407       .  A
C953        C958   1.410       .  A
C954        C955   1.403       .  A
C954        H963   1.083       .  S
C955        C956   1.405       .  A
C955        H964   1.084       .  S
C956        C962   1.411       .  A
C956        C957   1.412       .  A
C957        C959   1.402       .  A
C957        C958   1.406       .  A
C958        H965   1.084       .  S
C959        C960   1.398       .  A
C959        H966   1.084       .  S
C960        C961   1.407       .  A
C960        H967   1.083       .  S
C961        C962   1.412       .  A
C962        H968   1.084       .  S
C969        C970   1.401       .  A
C969        C974   1.409       .  A
C970        C971   1.404   1_545  A
C970        H979   1.083       .  S
C971        C972   1.408       .  A
C971        H980   1.084       .  S
C972        C978   1.405       .  A
C972        C973   1.411       .  A
C973        C975   1.406       .  A
C973        C974   1.402   1_565  A
C974        H981   1.085       .  S
C975        C976   1.401       .  A
C975        H982   1.084       .  S
C976        C977   1.401       .  A
C976        H983   1.083       .  S
C977        C978   1.411       .  A
C978        H984   1.085       .  S
C985        C986   1.408       .  A
C985        C990   1.405       .  A
C986        C987   1.400       .  A
C986        H995   1.083       .  S
C987        C988   1.401       .  A
C987        H996   1.084       .  S
C988        C994   1.412       .  A
C988        C989   1.417       .  A
C989        C991   1.399       .  A
C989        C990   1.409       .  A
C990        H997   1.084       .  S
C991        C992   1.396       .  A
C991        H998   1.084       .  S
C992        C993   1.406       .  A
C992        H999   1.082       .  S
C993        C994   1.405       .  A
C994       H1000   1.084       .  S
C1001      C1002   1.402       .  A
C1001      C1006   1.404       .  A
C1002      C1003   1.389       .  A
C1002      H1011   1.084       .  S
C1003      C1004   1.397       .  A
C1003      H1012   1.084       .  S
C1004      C1010   1.394       .  A
C1004      C1005   1.416       .  A
C1005      C1007   1.404       .  A
C1005      C1006   1.407       .  A
C1006      H1013   1.084       .  S
C1007      C1008   1.401       .  A
C1007      H1014   1.083       .  S
C1008      C1009   1.405       .  A
C1008      H1015   1.083       .  S
C1009      C1010   1.400       .  A
C1010      H1016   1.085       .  S
C1017      C1018   1.401       .  A
C1017      C1022   1.406       .  A
C1018      C1019   1.404       .  A
C1018      H1027   1.083       .  S
C1019      C1020   1.408       .  A
C1019      H1028   1.084       .  S
C1020      C1026   1.406       .  A
C1020      C1021   1.412       .  A
C1021      C1023   1.403       .  A
C1021      C1022   1.400       .  A
C1022      H1029   1.083       .  S
C1023      C1024   1.397       .  A
C1023      H1030   1.084       .  S
C1024      C1025   1.404       .  A
C1024      H1031   1.083       .  S
C1025      C1026   1.411       .  A
C1026      H1032   1.085       .  S
C1033      C1034   1.400       .  A
C1033      C1038   1.411       .  A
C1034      C1035   1.403       .  A
C1034      H1043   1.083       .  S
C1035      C1036   1.408       .  A
C1035      H1044   1.084       .  S
C1036      C1042   1.401       .  A
C1036      C1037   1.410       .  A
C1037      C1039   1.408       .  A
C1037      C1038   1.401       .  A
C1038      H1045   1.085       .  S
C1039      C1040   1.402       .  A
C1039      H1046   1.084       .  S
C1040      C1041   1.401       .  A
C1040      H1047   1.083       .  S
C1041      C1042   1.411       .  A
C1042      H1048   1.085       .  S
C1049      C1050   1.403       .  A
C1049      C1054   1.404       .  A
C1050      C1051   1.392       .  A
C1050      H1059   1.084   1_565  S
C1051      C1052   1.399       .  A
C1051      H1060   1.083       .  S
C1052      C1058   1.400       .  A
C1052      C1053   1.416       .  A
C1053      C1055   1.403       .  A
C1053      C1054   1.408       .  A
C1054      H1061   1.084       .  S
C1055      C1056   1.401       .  A
C1055      H1062   1.083       .  S
C1056      C1057   1.406       .  A
C1056      H1063   1.083       .  S
C1057      C1058   1.403       .  A
C1058      H1064   1.084       .  S
C1065      C1066   1.405       .  A
C1065      C1070   1.411       .  A
C1066      C1067   1.397       .  A
C1066      H1075   1.083       .  S
C1067      C1068   1.403       .  A
C1067      H1076   1.083       .  S
C1068      C1074   1.402       .  A
C1068      C1069   1.412       .  A
C1069      C1071   1.408       .  A
C1069      C1070   1.408       .  A
C1070      H1077   1.084       .  S
C1071      C1072   1.404       .  A
C1071      H1078   1.083       .  S
C1072      C1073   1.401       .  A
C1072      H1079   1.083       .  S
C1073      C1074   1.406       .  A
C1074      H1080   1.085       .  S
C1081      C1082   1.407       .  A
C1081      C1086   1.410       .  A
C1082      C1083   1.402       .  A
C1082      H1091   1.083       .  S
C1083      C1084   1.404       .  A
C1083      H1092   1.084       .  S
C1084      C1090   1.410       .  A
C1084      C1085   1.413       .  A
C1085      C1087   1.402       .  A
C1085      C1086   1.407       .  A
C1086      H1093   1.084       .  S
C1087      C1088   1.398       .  A
C1087      H1094   1.084       .  S
C1088      C1089   1.408       .  A
C1088      H1095   1.083       .  S
C1089      C1090   1.411       .  A
C1090      H1096   1.084       .  S
C1097      C1098   1.400       .  A
C1097      C1102   1.398       .  A
C1098      C1099   1.390       .  A
C1098      H1107   1.084       .  S
C1099      C1100   1.399       .  A
C1099      H1108   1.084       .  S
C1100      C1106   1.396       .  A
C1100      C1101   1.416       .  A
C1101      C1103   1.401       .  A
C1101      C1102   1.402       .  A
C1102      H1109   1.084       .  S
C1103      C1104   1.397       .  A
C1103      H1110   1.083       .  S
C1104      C1105   1.407       .  A
C1104      H1111   1.083       .  S
C1105      C1106   1.402       .  A
C1106      H1112   1.085       .  S
C1113      C1114   1.408       .  A
C1113      C1118   1.405       .  A
C1114      C1115   1.394       .  A
C1114      H1123   1.083       .  S
C1115      C1116   1.398       .  A
C1115      H1124   1.084       .  S
C1116      C1122   1.405       .  A
C1116      C1117   1.417       .  A
C1117      C1119   1.402       .  A
C1117      C1118   1.410       .  A
C1118      H1125   1.084       .  S
C1119      C1120   1.399       .  A
C1119      H1126   1.084       .  S
C1120      C1121   1.405       .  A
C1120      H1127   1.083       .  S
C1121      C1122   1.401       .  A
C1122      H1128   1.085       .  S
C1129      C1130   1.400       .  A
C1129      C1134   1.413       .  A
C1130      C1131   1.403       .  A
C1130      H1139   1.083       .  S
C1131      C1132   1.408       .  A
C1131      H1140   1.083       .  S
C1132      C1138   1.405       .  A
C1132      C1133   1.411       .  A
C1133      C1135   1.409       .  A
C1133      C1134   1.408       .  A
C1134      H1141   1.085       .  S
C1135      C1136   1.406       .  A
C1135      H1142   1.084       .  S
C1136      C1137   1.403       .  A
C1136      H1143   1.083       .  S
C1137      C1138   1.412       .  A
C1138      H1144   1.084       .  S
C1145      C1146   1.407       .  A
C1145      C1150   1.412       .  A
C1146      C1147   1.389       .  A
C1146      H1155   1.083       .  S
C1147      C1148   1.396       .  A
C1147      H1156   1.084       .  S
C1148      C1154   1.398       .  A
C1148      C1149   1.414       .  A
C1149      C1151   1.409       .  A
C1149      C1150   1.415       .  A
C1150      H1157   1.084       .  S
C1151      C1152   1.407       .  A
C1151      H1158   1.083       .  S
C1152      C1153   1.405       .  A
C1152      H1159   1.083       .  S
C1153      C1154   1.403       .  A
C1154      H1160   1.085       .  S
C1161      C1162   1.407       .  A
C1161      C1166   1.405       .  A
C1162      C1163   1.399       .  A
C1162      H1171   1.083       .  S
C1163      C1164   1.401       .  A
C1163      H1172   1.085   1_556  S
C1164      C1170   1.410       .  A
C1164      C1165   1.417       .  A
C1165      C1167   1.401       .  A
C1165      C1166   1.410       .  A
C1166      H1173   1.085       .  S
C1167      C1168   1.399       .  A
C1167      H1174   1.085       .  S
C1168      C1169   1.405       .  A
C1168      H1175   1.083       .  S
C1169      C1170   1.405       .  A
C1170      H1176   1.086       .  S
C1177      C1178   1.405       .  A
C1177      C1182   1.405       .  A
C1178      C1179   1.390       .  A
C1178      H1187   1.081       .  S
C1179      C1180   1.398       .  A
C1179      H1188   1.083       .  S
C1180      C1186   1.394       .  A
C1180      C1181   1.415       .  A
C1181      C1183   1.404       .  A
C1181      C1182   1.400       .  A
C1182      H1189   1.084       .  S
C1183      C1184   1.397       .  A
C1183      H1190   1.083       .  S
C1184      C1185   1.400       .  A
C1184      H1191   1.081       .  S
C1185      C1186   1.397       .  A
C1186      H1192   1.085       .  S
C1193      C1194   1.408       .  A
C1193      C1198   1.402       .  A
C1194      C1195   1.394       .  A
C1194      H1203   1.084       .  S
C1195      C1196   1.398       .  A
C1195      H1204   1.083       .  S
C1196      C1202   1.407       .  A
C1196      C1197   1.417       .  A
C1197      C1199   1.400       .  A
C1197      C1198   1.409       .  A
C1198      H1205   1.084       .  S
C1199      C1200   1.397       .  A
C1199      H1206   1.083       .  S
C1200      C1201   1.407       .  A
C1200      H1207   1.084       .  S
C1201      C1202   1.403       .  A
C1202      H1208   1.084       .  S
C1209      C1210   1.402       .  A
C1209      C1214   1.405       .  A
C1210      C1211   1.403       .  A
C1210      H1219   1.083       .  S
C1211      C1212   1.407   1_565  A
C1211      H1220   1.083       .  S
C1212      C1218   1.406       .  A
C1212      C1213   1.413   1_545  A
C1213      C1215   1.404   1_565  A
C1213      C1214   1.402       .  A
C1214      H1221   1.085       .  S
C1215      C1216   1.397       .  A
C1215      H1222   1.083   1_545  S
C1216      C1217   1.402       .  A
C1216      H1223   1.083       .  S
C1217      C1218   1.409       .  A
C1218      H1224   1.084       .  S
C1225      C1226   1.401       .  A
C1225      C1230   1.409       .  A
C1226      C1227   1.402       .  A
C1226      H1235   1.083       .  S
C1227      C1228   1.407       .  A
C1227      H1236   1.084       .  S
C1228      C1234   1.404       .  A
C1228      C1229   1.411       .  A
C1229      C1231   1.408       .  A
C1229      C1230   1.407       .  A
C1230      H1237   1.082       .  S
C1231      C1232   1.403       .  A
C1231      H1238   1.083       .  S
C1232      C1233   1.402       .  A
C1232      H1239   1.083       .  S
C1233      C1234   1.411       .  A
C1234      H1240   1.085       .  S
C1241      C1242   1.408       .  A
C1241      C1246   1.408       .  A
C1242      C1243   1.394       .  A
C1242      H1251   1.083       .  S
C1243      C1244   1.399       .  A
C1243      H1252   1.084       .  S
C1244      C1250   1.399   1_556  A
C1244      C1245   1.414       .  A
C1245      C1247   1.405   1_556  A
C1245      C1246   1.404       .  A
C1246      H1253   1.084       .  S
C1247      C1248   1.399       .  A
C1247      H1254   1.084       .  S
C1248      C1249   1.401       .  A
C1248      H1255   1.082       .  S
C1249      C1250   1.400       .  A
C1250      H1256   1.085       .  S
C1257      C1258   1.405       .  A
C1257      C1262   1.404       .  A
C1258      C1259   1.407       .  A
C1258      H1267   1.083       .  S
C1259      C1260   1.407       .  A
C1259      H1268   1.083       .  S
C1260      C1266   1.417       .  A
C1260      C1261   1.415       .  A
C1261      C1263   1.397       .  A
C1261      C1262   1.402       .  A
C1262      H1269   1.086       .  S
C1263      C1264   1.391       .  A
C1263      H1270   1.084       .  S
C1264      C1265   1.409       .  A
C1264      H1271   1.084       .  S
C1265      C1266   1.411       .  A
C1266      H1272   1.084       .  S
C1273      C1274   1.402       .  A
C1273      C1278   1.405       .  A
C1274      C1275   1.400       .  A
C1274      H1283   1.081       .  S
C1275      C1276   1.405       .  A
C1275      H1284   1.085       .  S
C1276      C1282   1.405       .  A
C1276      C1277   1.413       .  A
C1277      C1279   1.402       .  A
C1277      C1278   1.402       .  A
C1278      H1285   1.086       .  S
C1279      C1280   1.397       .  A
C1279      H1286   1.085       .  S
C1280      C1281   1.408       .  A
C1280      H1287   1.083       .  S
C1281      C1282   1.410       .  A
C1282      H1288   1.085       .  S
C1289      C1290   1.404       .  A
C1289      C1294   1.402       .  A
C1290      C1291   1.400       .  A
C1290      H1299   1.084       .  S
C1291      C1292   1.403       .  A
C1291      H1300   1.083       .  S
C1292      C1298   1.410       .  A
C1292      C1293   1.416       .  A
C1293      C1295   1.399       .  A
C1293      C1294   1.403       .  A
C1294      H1301   1.084       .  S
C1295      C1296   1.394       .  A
C1295      H1302   1.084       .  S
C1296      C1297   1.404       .  A
C1296      H1303   1.084       .  S
C1297      C1298   1.404       .  A
C1298      H1304   1.084       .  S
C1305      C1306   1.401       .  A
C1305      C1310   1.410       .  A
C1306      C1307   1.405       .  A
C1306      H1315   1.083       .  S
C1307      C1308   1.409       .  A
C1307      H1316   1.083       .  S
C1308      C1314   1.405       .  A
C1308      C1309   1.410       .  A
C1309      C1311   1.409       .  A
C1309      C1310   1.404       .  A
C1310      H1317   1.081       .  S
C1311      C1312   1.404       .  A
C1311      H1318   1.083       .  S
C1312      C1313   1.401       .  A
C1312      H1319   1.083       .  S
C1313      C1314   1.410       .  A
C1314      H1320   1.081       .  S
C1321      C1322   1.408       .  A
C1321      C1326   1.406       .  A
C1322      C1323   1.401       .  A
C1322      H1331   1.083       .  S
C1323      C1324   1.403       .  A
C1323      H1332   1.084       .  S
C1324      C1330   1.410       .  A
C1324      C1325   1.416       .  A
C1325      C1327   1.400       .  A
C1325      C1326   1.403       .  A
C1326      H1333   1.085       .  S
C1327      C1328   1.394       .  A
C1327      H1334   1.084       .  S
C1328      C1329   1.403       .  A
C1328      H1335   1.084       .  S
C1329      C1330   1.404       .  A
C1330      H1336   1.084       .  S
C1337      C1338   1.412       .  A
C1337      C1342   1.404       .  A
C1338      C1339   1.400       .  A
C1338      H1347   1.083       .  S
C1339      C1340   1.400       .  A
C1339      H1348   1.084       .  S
C1340      C1346   1.415       .  A
C1340      C1341   1.417       .  A
C1341      C1343   1.397       .  A
C1341      C1342   1.410       .  A
C1342      H1349   1.084       .  S
C1343      C1344   1.394       .  A
C1343      H1350   1.084       .  S
C1344      C1345   1.411       .  A
C1344      H1351   1.083       .  S
C1345      C1346   1.407       .  A
C1346      H1352   1.084       .  S
C1353      C1354   1.400       .  A
C1353      C1358   1.404       .  A
C1354      C1355   1.401   1_545  A
C1354      H1363   1.083       .  S
C1355      C1356   1.406       .  A
C1355      H1364   1.084       .  S
C1356      C1362   1.404       .  A
C1356      C1357   1.413       .  A
C1357      C1359   1.403       .  A
C1357      C1358   1.399   1_565  A
C1358      H1365   1.085       .  S
C1359      C1360   1.395       .  A
C1359      H1366   1.082       .  S
C1360      C1361   1.403       .  A
C1360      H1367   1.083       .  S
C1361      C1362   1.408       .  A
C1362      H1368   1.085       .  S
C1369      C1370   1.406       .  A
C1369      C1374   1.408       .  A
C1370      C1371   1.393       .  A
C1370      H1379   1.083       .  S
C1371      C1372   1.399       .  A
C1371      H1380   1.084       .  S
C1372      C1378   1.400       .  A
C1372      C1373   1.415       .  A
C1373      C1375   1.405       .  A
C1373      C1374   1.407       .  A
C1374      H1381   1.084       .  S
C1375      C1376   1.401   1_554  A
C1375      H1382   1.083       .  S
C1376      C1377   1.402       .  A
C1376      H1383   1.083       .  S
C1377      C1378   1.400   1_556  A
C1378      H1384   1.085       .  S
C1385      C1386   1.406       .  A
C1385      C1390   1.401       .  A
C1386      C1387   1.402       .  A
C1386      H1395   1.083       .  S
C1387      C1388   1.404       .  A
C1387      H1396   1.083       .  S
C1388      C1394   1.412       .  A
C1388      C1389   1.417       .  A
C1389      C1391   1.399       .  A
C1389      C1390   1.404       .  A
C1390      H1397   1.085       .  S
C1391      C1392   1.393       .  A
C1391      H1398   1.084       .  S
C1392      C1393   1.403       .  A
C1392      H1399   1.084       .  S
C1393      C1394   1.406       .  A
C1394      H1400   1.084       .  S
C1401      C1402   1.402       .  A
C1401      C1406   1.408       .  A
C1402      C1403   1.403       .  A
C1402      H1411   1.083       .  S
C1403      C1404   1.408       .  A
C1403      H1412   1.082       .  S
C1404      C1410   1.404       .  A
C1404      C1405   1.411       .  A
C1405      C1407   1.405       .  A
C1405      C1406   1.399       .  A
C1406      H1413   1.083       .  S
C1407      C1408   1.398       .  A
C1407      H1414   1.083       .  S
C1408      C1409   1.400       .  A
C1408      H1415   1.084       .  S
C1409      C1410   1.408       .  A
C1410      H1416   1.084       .  S
C1417      C1418   1.407       .  A
C1417      C1422   1.405   1_556  A
C1418      C1419   1.399   1_655  A
C1418      H1427   1.083       .  S
C1419      C1420   1.403   1_556  A
C1419      H1428   1.084       .  S
C1420      C1426   1.405       .  A
C1420      C1421   1.413   1_455  A
C1421      C1423   1.399       .  A
C1421      C1422   1.399       .  A
C1422      H1429   1.084       .  S
C1423      C1424   1.393   1_655  A
C1423      H1430   1.084       .  S
C1424      C1425   1.407       .  A
C1424      H1431   1.083       .  S
C1425      C1426   1.408       .  A
C1426      H1432   1.084       .  S
C1433      C1434   1.401       .  A
C1433      C1438   1.403       .  A
C1434      C1435   1.390       .  A
C1434      H1443   1.084       .  S
C1435      C1436   1.399       .  A
C1435      H1444   1.085       .  S
C1436      C1442   1.395       .  A
C1436      C1437   1.416       .  A
C1437      C1439   1.405       .  A
C1437      C1438   1.406       .  A
C1438      H1445   1.084       .  S
C1439      C1440   1.401       .  A
C1439      H1446   1.084       .  S
C1440      C1441   1.404       .  A
C1440      H1447   1.083       .  S
C1441      C1442   1.400       .  A
C1442      H1448   1.086       .  S
C1449      C1450   1.403       .  A
C1449      C1454   1.411       .  A
C1450      C1451   1.408       .  A
C1450      H1459   1.083       .  S
C1451      C1452   1.410       .  A
C1451      H1460   1.083       .  S
C1452      C1458   1.412       .  A
C1452      C1453   1.412       .  A
C1453      C1455   1.403       .  A
C1453      C1454   1.401       .  A
C1454      H1461   1.085       .  S
C1455      C1456   1.396       .  A
C1455      H1462   1.084       .  S
C1456      C1457   1.403       .  A
C1456      H1463   1.084       .  S
C1457      C1458   1.413       .  A
C1458      H1464   1.084       .  S
C1465      C1466   1.410       .  A
C1465      C1470   1.405       .  A
C1466      C1467   1.396       .  A
C1466      H1475   1.083       .  S
C1467      C1468   1.399       .  A
C1467      H1476   1.083       .  S
C1468      C1474   1.409       .  A
C1468      C1469   1.416       .  A
C1469      C1471   1.399       .  A
C1469      C1470   1.410       .  A
C1470      H1477   1.083       .  S
C1471      C1472   1.397       .  A
C1471      H1478   1.083       .  S
C1472      C1473   1.411       .  A
C1472      H1479   1.083       .  S
C1473      C1474   1.406       .  A
C1474      H1480   1.083       .  S
C1481      C1482   1.402       .  A
C1481      C1486   1.400   1_565  A
C1482      C1483   1.396       .  A
C1482      H1491   1.084       .  S
C1483      C1484   1.402   1_565  A
C1483      H1492   1.083       .  S
C1484      C1490   1.401       .  A
C1484      C1485   1.415       .  A
C1485      C1487   1.401       .  A
C1485      C1486   1.402       .  A
C1486      H1493   1.084       .  S
C1487      C1488   1.396       .  A
C1487      H1494   1.083       .  S
C1488      C1489   1.406       .  A
C1488      H1495   1.083       .  S
C1489      C1490   1.405       .  A
C1490      H1496   1.084       .  S
C1497      C1498   1.406       .  A
C1497      C1502   1.411       .  A
C1498      C1499   1.399       .  A
C1498      H1507   1.083       .  S
C1499      C1500   1.404       .  A
C1499      H1508   1.084   1_565  S
C1500      C1506   1.405   1_565  A
C1500      C1501   1.411       .  A
C1501      C1503   1.405       .  A
C1501      C1502   1.407       .  A
C1502      H1509   1.084       .  S
C1503      C1504   1.402       .  A
C1503      H1510   1.083       .  S
C1504      C1505   1.405   1_565  A
C1504      H1511   1.083       .  S
C1505      C1506   1.412       .  A
C1506      H1512   1.084       .  S
C1513      C1514   1.406       .  A
C1513      C1518   1.403       .  A
C1514      C1515   1.400       .  A
C1514      H1523   1.083       .  S
C1515      C1516   1.402       .  A
C1515      H1524   1.084       .  S
C1516      C1522   1.412       .  A
C1516      C1517   1.416       .  A
C1517      C1519   1.400       .  A
C1517      C1518   1.409       .  A
C1518      H1525   1.084       .  S
C1519      C1520   1.396       .  A
C1519      H1526   1.084       .  S
C1520      C1521   1.407       .  A
C1520      H1527   1.084       .  S
C1521      C1522   1.407       .  A
C1522      H1528   1.084       .  S
C1529      C1530   1.401       .  A
C1529      C1534   1.413       .  A
C1530      C1531   1.403       .  A
C1530      H1539   1.083       .  S
C1531      C1532   1.408       .  A
C1531      H1540   1.084       .  S
C1532      C1538   1.404       .  A
C1532      C1533   1.410       .  A
C1533      C1535   1.408       .  A
C1533      C1534   1.402       .  A
C1534      H1541   1.085       .  S
C1535      C1536   1.402       .  A
C1535      H1542   1.084       .  S
C1536      C1537   1.401       .  A
C1536      H1543   1.083       .  S
C1537      C1538   1.411       .  A
C1538      H1544   1.085       .  S
C1545      C1546   1.407       .  A
C1545      C1550   1.408       .  A
C1546      C1547   1.393       .  A
C1546      H1555   1.084       .  S
C1547      C1548   1.399       .  A
C1547      H1556   1.083       .  S
C1548      C1554   1.399       .  A
C1548      C1549   1.414       .  A
C1549      C1551   1.405       .  A
C1549      C1550   1.405       .  A
C1550      H1557   1.084       .  S
C1551      C1552   1.400       .  A
C1551      H1558   1.083       .  S
C1552      C1553   1.402       .  A
C1552      H1559   1.083       .  S
C1553      C1554   1.401       .  A
C1554      H1560   1.085       .  S
C1561      C1562   1.401       .  A
C1561      C1566   1.405       .  A
C1562      C1563   1.404       .  A
C1562      H1571   1.083       .  S
C1563      C1564   1.408       .  A
C1563      H1572   1.084       .  S
C1564      C1570   1.408       .  A
C1564      C1565   1.413       .  A
C1565      C1567   1.402       .  A
C1565      C1566   1.401       .  A
C1566      H1573   1.085       .  S
C1567      C1568   1.397       .  A
C1567      H1574   1.084       .  S
C1568      C1569   1.405       .  A
C1568      H1575   1.083       .  S
C1569      C1570   1.412       .  A
C1570      H1576   1.084       .  S
C1577      C1578   1.404       .  A
C1577      C1582   1.400       .  A
C1578      C1579   1.397       .  A
C1578      H1587   1.084       .  S
C1579      C1580   1.401       .  A
C1579      H1588   1.084       .  S
C1580      C1586   1.405       .  A
C1580      C1581   1.416       .  A
C1581      C1583   1.399       .  A
C1581      C1582   1.402       .  A
C1582      H1589   1.085       .  S
C1583      C1584   1.394       .  A
C1583      H1590   1.084       .  S
C1584      C1585   1.407       .  A
C1584      H1591   1.083       .  S
C1585      C1586   1.404       .  A
C1586      H1592   1.084       .  S
C1593      C1594   1.403       .  A
C1593      C1598   1.403       .  A
C1594      C1595   1.396       .  A
C1594      H1603   1.083       .  S
C1595      C1596   1.403       .  A
C1595      H1604   1.084       .  S
C1596      C1602   1.400       .  A
C1596      C1597   1.415       .  A
C1597      C1599   1.403       .  A
C1597      C1598   1.399       .  A
C1598      H1605   1.085       .  S
C1599      C1600   1.395       .  A
C1599      H1606   1.084       .  S
C1600      C1601   1.401       .  A
C1600      H1607   1.083       .  S
C1601      C1602   1.401       .  A
C1602      H1608   1.085       .  S
C1609      C1610   1.408       .  A
C1609      C1614   1.407       .  A
C1610      C1611   1.391       .  A
C1610      H1619   1.083       .  S
C1611      C1612   1.398       .  A
C1611      H1620   1.084       .  S
C1612      C1618   1.397       .  A
C1612      C1613   1.414       .  A
C1613      C1615   1.405       .  A
C1613      C1614   1.405       .  A
C1614      H1621   1.084       .  S
C1615      C1616   1.400       .  A
C1615      H1622   1.083       .  S
C1616      C1617   1.403       .  A
C1616      H1623   1.083       .  S
C1617      C1618   1.401       .  A
C1618      H1624   1.085       .  S
C1625      C1626   1.405       .  A
C1625      C1630   1.401       .  A
C1626      C1627   1.396       .  A
C1626      H1635   1.082       .  S
C1627      C1628   1.399   1_655  A
C1627      H1636   1.084       .  S
C1628      C1634   1.408       .  A
C1628      C1629   1.417   1_455  A
C1629      C1631   1.399   1_655  A
C1629      C1630   1.409       .  A
C1630      H1637   1.085       .  S
C1631      C1632   1.397       .  A
C1631      H1638   1.084       .  S
C1632      C1633   1.408       .  A
C1632      H1639   1.083       .  S
C1633      C1634   1.405       .  A
C1634      H1640   1.085       .  S
C1641      C1642   1.402       .  A
C1641      C1646   1.405       .  A
C1642      C1643   1.404       .  A
C1642      H1651   1.083       .  S
C1643      C1644   1.408       .  A
C1643      H1652   1.083       .  S
C1644      C1650   1.409       .  A
C1644      C1645   1.413       .  A
C1645      C1647   1.403       .  A
C1645      C1646   1.402       .  A
C1646      H1653   1.085       .  S
C1647      C1648   1.396       .  A
C1647      H1654   1.083       .  S
C1648      C1649   1.403       .  A
C1648      H1655   1.083       .  S
C1649      C1650   1.411       .  A
C1650      H1656   1.084       .  S
C1657      C1658   1.403       .  A
C1657      C1662   1.411       .  A
C1658      C1659   1.406       .  A
C1658      H1667   1.083       .  S
C1659      C1660   1.409       .  A
C1659      H1668   1.084       .  S
C1660      C1666   1.406       .  A
C1660      C1661   1.410       .  A
C1661      C1663   1.406       .  A
C1661      C1662   1.401       .  A
C1662      H1669   1.083       .  S
C1663      C1664   1.399       .  A
C1663      H1670   1.084       .  S
C1664      C1665   1.399       .  A
C1664      H1671   1.083       .  S
C1665      C1666   1.410       .  A
C1666      H1672   1.085       .  S
C1673      C1674   1.401   1_656  A
C1673      C1678   1.401       .  A
C1674      C1675   1.394   1_455  A
C1674      H1683   1.084       .  S
C1675      C1676   1.401       .  A
C1675      H1684   1.084   1_655  S
C1676      C1682   1.400       .  A
C1676      C1677   1.415       .  A
C1677      C1679   1.402       .  A
C1677      C1678   1.404   1_554  A
C1678      H1685   1.085       .  S
C1679      C1680   1.398       .  A
C1679      H1686   1.084       .  S
C1680      C1681   1.407       .  A
C1680      H1687   1.083       .  S
C1681      C1682   1.405       .  A
C1682      H1688   1.084       .  S
C1689      C1690   1.406       .  A
C1689      C1694   1.408       .  A
C1690      C1691   1.391       .  A
C1690      H1699   1.083       .  S
C1691      C1692   1.399       .  A
C1691      H1700   1.084       .  S
C1692      C1698   1.396   1_556  A
C1692      C1693   1.414       .  A
C1693      C1695   1.406   1_556  A
C1693      C1694   1.404       .  A
C1694      H1701   1.084       .  S
C1695      C1696   1.401       .  A
C1695      H1702   1.083       .  S
C1696      C1697   1.401       .  A
C1696      H1703   1.084       .  S
C1697      C1698   1.399       .  A
C1698      H1704   1.085   1_565  S
C1705      C1706   1.401       .  A
C1705      C1710   1.405       .  A
C1706      C1707   1.404       .  A
C1706      H1715   1.083       .  S
C1707      C1708   1.409       .  A
C1707      H1716   1.083       .  S
C1708      C1714   1.405       .  A
C1708      C1709   1.411       .  A
C1709      C1711   1.404       .  A
C1709      C1710   1.398       .  A
C1710      H1717   1.084       .  S
C1711      C1712   1.397       .  A
C1711      H1718   1.084       .  S
C1712      C1713   1.402       .  A
C1712      H1719   1.083       .  S
C1713      C1714   1.413       .  A
C1714      H1720   1.084       .  S
C1721      C1722   1.404       .  A
C1721      C1726   1.407       .  A
C1722      C1723   1.401       .  A
C1722      H1731   1.083       .  S
C1723      C1724   1.406       .  A
C1723      H1732   1.084       .  S
C1724      C1730   1.406       .  A
C1724      C1725   1.413       .  A
C1725      C1727   1.403       .  A
C1725      C1726   1.400       .  A
C1726      H1733   1.085       .  S
C1727      C1728   1.396       .  A
C1727      H1734   1.084       .  S
C1728      C1729   1.401       .  A
C1728      H1735   1.083       .  S
C1729      C1730   1.407       .  A
C1730      H1736   1.085       .  S
C1737      C1738   1.406       .  A
C1737      C1742   1.405       .  A
C1738      C1739   1.389       .  A
C1738      H1747   1.084       .  S
C1739      C1740   1.397       .  A
C1739      H1748   1.084       .  S
C1740      C1746   1.396       .  A
C1740      C1741   1.415       .  A
C1741      C1743   1.403       .  A
C1741      C1742   1.407       .  A
C1742      H1749   1.084       .  S
C1743      C1744   1.400       .  A
C1743      H1750   1.083       .  S
C1744      C1745   1.407       .  A
C1744      H1751   1.083       .  S
C1745      C1746   1.404       .  A
C1746      H1752   1.084       .  S
C1753      C1754   1.405       .  A
C1753      C1758   1.405       .  A
C1754      C1755   1.394       .  A
C1754      H1763   1.083       .  S
C1755      C1756   1.400       .  A
C1755      H1764   1.084       .  S
C1756      C1762   1.400       .  A
C1756      C1757   1.416       .  A
C1757      C1759   1.403       .  A
C1757      C1758   1.402       .  A
C1758      H1765   1.084       .  S
C1759      C1760   1.397       .  A
C1759      H1766   1.084       .  S
C1760      C1761   1.402       .  A
C1760      H1767   1.084       .  S
C1761      C1762   1.399       .  A
C1762      H1768   1.085       .  S
C1769      C1770   1.404       .  A
C1769      C1774   1.400       .  A
C1770      C1771   1.399       .  A
C1770      H1779   1.084       .  S
C1771      C1772   1.402       .  A
C1771      H1780   1.084       .  S
C1772      C1778   1.410       .  A
C1772      C1773   1.417       .  A
C1773      C1775   1.398       .  A
C1773      C1774   1.402       .  A
C1774      H1781   1.085       .  S
C1775      C1776   1.392       .  A
C1775      H1782   1.084       .  S
C1776      C1777   1.405       .  A
C1776      H1783   1.083       .  S
C1777      C1778   1.403       .  A
C1778      H1784   1.084       .  S
C1785      C1786   1.406       .  A
C1785      C1790   1.408       .  A
C1786      C1787   1.403       .  A
C1786      H1795   1.083       .  S
C1787      C1788   1.406       .  A
C1787      H1796   1.084       .  S
C1788      C1794   1.408       .  A
C1788      C1789   1.411       .  A
C1789      C1791   1.401       .  A
C1789      C1790   1.401       .  A
C1790      H1797   1.084       .  S
C1791      C1792   1.395       .  A
C1791      H1798   1.084       .  S
C1792      C1793   1.405       .  A
C1792      H1799   1.083       .  S
C1793      C1794   1.413       .  A
C1794      H1800   1.084       .  S
C1801      C1802   1.406       .  A
C1801      C1806   1.405       .  A
C1802      C1803   1.396       .  A
C1802      H1811   1.084       .  S
C1803      C1804   1.400       .  A
C1803      H1812   1.083       .  S
C1804      C1810   1.408       .  A
C1804      C1805   1.416       .  A
C1805      C1807   1.402       .  A
C1805      C1806   1.412       .  A
C1806      H1813   1.084       .  S
C1807      C1808   1.400       .  A
C1807      H1814   1.083       .  S
C1808      C1809   1.408       .  A
C1808      H1815   1.083       .  S
C1809      C1810   1.405       .  A
C1810      H1816   1.084       .  S
C1817      C1818   1.400       .  A
C1817      C1822   1.409       .  A
C1818      C1819   1.402   1_455  A
C1818      H1827   1.083       .  S
C1819      C1820   1.408       .  A
C1819      H1828   1.084       .  S
C1820      C1826   1.402       .  A
C1820      C1821   1.411   1_655  A
C1821      C1823   1.406   1_455  A
C1821      C1822   1.400       .  A
C1822      H1829   1.085       .  S
C1823      C1824   1.400       .  A
C1823      H1830   1.084   1_655  S
C1824      C1825   1.400       .  A
C1824      H1831   1.083       .  S
C1825      C1826   1.409       .  A
C1826      H1832   1.085       .  S
C1833      C1834   1.406       .  A
C1833      C1838   1.407       .  A
C1834      C1835   1.397       .  A
C1834      H1843   1.083       .  S
C1835      C1836   1.402       .  A
C1835      H1844   1.084       .  S
C1836      C1842   1.403       .  A
C1836      C1837   1.415       .  A
C1837      C1839   1.404       .  A
C1837      C1838   1.403       .  A
C1838      H1845   1.084       .  S
C1839      C1840   1.397       .  A
C1839      H1846   1.084       .  S
C1840      C1841   1.401       .  A
C1840      H1847   1.084       .  S
C1841      C1842   1.402       .  A
C1842      H1848   1.085       .  S
C1849      C1850   1.406       .  A
C1849      C1854   1.406       .  A
C1850      C1851   1.394       .  A
C1850      H1859   1.083       .  S
C1851      C1852   1.400       .  A
C1851      H1860   1.084       .  S
C1852      C1858   1.398       .  A
C1852      C1853   1.414       .  A
C1853      C1855   1.404       .  A
C1853      C1854   1.399       .  A
C1854      H1861   1.084       .  S
C1855      C1856   1.397       .  A
C1855      H1862   1.083       .  S
C1856      C1857   1.400       .  A
C1856      H1863   1.084       .  S
C1857      C1858   1.399       .  A
C1858      H1864   1.085       .  S
C1865      C1866   1.404       .  A
C1865      C1870   1.403       .  A
C1866      C1867   1.397       .  A
C1866      H1875   1.084       .  S
C1867      C1868   1.401       .  A
C1867      H1876   1.084       .  S
C1868      C1874   1.409       .  A
C1868      C1869   1.417       .  A
C1869      C1871   1.401       .  A
C1869      C1870   1.409       .  A
C1870      H1877   1.085       .  S
C1871      C1872   1.398       .  A
C1871      H1878   1.084       .  S
C1872      C1873   1.407       .  A
C1872      H1879   1.083       .  S
C1873      C1874   1.405       .  A
C1874      H1880   1.084       .  S
C1881      C1882   1.406       .  A
C1881      C1886   1.405       .  A
C1882      C1883   1.395       .  A
C1882      H1891   1.084       .  S
C1883      C1884   1.399       .  A
C1883      H1892   1.084       .  S
C1884      C1890   1.406       .  A
C1884      C1885   1.417       .  A
C1885      C1887   1.402       .  A
C1885      C1886   1.410       .  A
C1886      H1893   1.084       .  S
C1887      C1888   1.400       .  A
C1887      H1894   1.084       .  S
C1888      C1889   1.404       .  A
C1888      H1895   1.084       .  S
C1889      C1890   1.402       .  A
C1890      H1896   1.085       .  S
C1897      C1898   1.406       .  A
C1897      C1902   1.407       .  A
C1898      C1899   1.391       .  A
C1898      H1907   1.083       .  S
C1899      C1900   1.398       .  A
C1899      H1908   1.084       .  S
C1900      C1906   1.398       .  A
C1900      C1901   1.415       .  A
C1901      C1903   1.406       .  A
C1901      C1902   1.407       .  A
C1902      H1909   1.084       .  S
C1903      C1904   1.402       .  A
C1903      H1910   1.084       .  S
C1904      C1905   1.403       .  A
C1904      H1911   1.080       .  S
C1905      C1906   1.399       .  A
C1906      H1912   1.085       .  S
C1913      C1914   1.401       .  A
C1913      C1918   1.402       .  A
C1914      C1915   1.398       .  A
C1914      H1923   1.084       .  S
C1915      C1916   1.404       .  A
C1915      H1924   1.083       .  S
C1916      C1922   1.403       .  A
C1916      C1917   1.415       .  A
C1917      C1919   1.402       .  A
C1917      C1918   1.403       .  A
C1918      H1925   1.085       .  S
C1919      C1920   1.397       .  A
C1919      H1926   1.083       .  S
C1920      C1921   1.405       .  A
C1920      H1927   1.084       .  S
C1921      C1922   1.406       .  A
C1922      H1928   1.084       .  S
C1929      C1930   1.405       .  A
C1929      C1934   1.402       .  A
C1930      C1931   1.404   1_455  A
C1930      H1939   1.084       .  S
C1931      C1932   1.405       .  A
C1931      H1940   1.083       .  S
C1932      C1938   1.414       .  A
C1932      C1933   1.417       .  A
C1933      C1935   1.399       .  A
C1933      C1934   1.401   1_655  A
C1934      H1941   1.085       .  S
C1935      C1936   1.391       .  A
C1935      H1942   1.084       .  S
C1936      C1937   1.403       .  A
C1936      H1943   1.084   1_545  S
C1937      C1938   1.406       .  A
C1938      H1944   1.084       .  S
C1945      C1946   1.406       .  A
C1945      C1950   1.410       .  A
C1946      C1947   1.397       .  A
C1946      H1955   1.083       .  S
C1947      C1948   1.402       .  A
C1947      H1956   1.083       .  S
C1948      C1954   1.403       .  A
C1948      C1949   1.412       .  A
C1949      C1951   1.403       .  A
C1949      C1950   1.406       .  A
C1950      H1957   1.084       .  S
C1951      C1952   1.400       .  A
C1951      H1958   1.083       .  S
C1952      C1953   1.407       .  A
C1952      H1959   1.083       .  S
C1953      C1954   1.408       .  A
C1954      H1960   1.084       .  S
C1961      C1962   1.405       .  A
C1961      C1966   1.403       .  A
C1962      C1963   1.396       .  A
C1962      H1971   1.084       .  S
C1963      C1964   1.400   1_565  A
C1963      H1972   1.084       .  S
C1964      C1970   1.409       .  A
C1964      C1965   1.418   1_545  A
C1965      C1967   1.401   1_565  A
C1965      C1966   1.411       .  A
C1966      H1973   1.084       .  S
C1967      C1968   1.399       .  A
C1967      H1974   1.084   1_545  S
C1968      C1969   1.407       .  A
C1968      H1975   1.083       .  S
C1969      C1970   1.403       .  A
C1970      H1976   1.084       .  S
C1977      C1978   1.400       .  A
C1977      C1982   1.410       .  A
C1978      C1979   1.401       .  A
C1978      H1987   1.083       .  S
C1979      C1980   1.407       .  A
C1979      H1988   1.083       .  S
C1980      C1986   1.402       .  A
C1980      C1981   1.411       .  A
C1981      C1983   1.408       .  A
C1981      C1982   1.404       .  A
C1982      H1989   1.085       .  S
C1983      C1984   1.403       .  A
C1983      H1990   1.083       .  S
C1984      C1985   1.402       .  A
C1984      H1991   1.083       .  S
C1985      C1986   1.411       .  A
C1986      H1992   1.084       .  S
C1993      C1994   1.407       .  A
C1993      C1998   1.402       .  A
C1994      C1995   1.399       .  A
C1994      H2003   1.083       .  S
C1995      C1996   1.402       .  A
C1995      H2004   1.083       .  S
C1996      C2002   1.405       .  A
C1996      C1997   1.416       .  A
C1997      C1999   1.396       .  A
C1997      C1998   1.394       .  A
C1998      H2005   1.084       .  S
C1999      C2000   1.387       .  A
C1999      H2006   1.084       .  S
C2000      C2001   1.405       .  A
C2000      H2007   1.084       .  S
C2001      C2002   1.403       .  A
C2002      H2008   1.084       .  S
C2009      C2010   1.405       .  A
C2009      C2014   1.409       .  A
C2010      C2011   1.397   1_455  A
C2010      H2019   1.083       .  S
C2011      C2012   1.402   1_655  A
C2011      H2020   1.084       .  S
C2012      C2018   1.401   1_455  A
C2012      C2013   1.413       .  A
C2013      C2015   1.405       .  A
C2013      C2014   1.402       .  A
C2014      H2021   1.084       .  S
C2015      C2016   1.399       .  A
C2015      H2022   1.084       .  S
C2016      C2017   1.401   1_455  A
C2016      H2023   1.082       .  S
C2017      C2018   1.403       .  A
C2018      H2024   1.085       .  S
C2025      C2026   1.408       .  A
C2025      C2030   1.406       .  A
C2026      C2027   1.394       .  A
C2026      H2035   1.082       .  S
C2027      C2028   1.398       .  A
C2027      H2036   1.086   1_556  S
C2028      C2034   1.406       .  A
C2028      C2029   1.417       .  A
C2029      C2031   1.402       .  A
C2029      C2030   1.412       .  A
C2030      H2037   1.086       .  S
C2031      C2032   1.401       .  A
C2031      H2038   1.086       .  S
C2032      C2033   1.406       .  A
C2032      H2039   1.083       .  S
C2033      C2034   1.402       .  A
C2034      H2040   1.087   1_556  S
C2041      C2042   1.406       .  A
C2041      C2046   1.411   1_556  A
C2042      C2043   1.397   1_545  A
C2042      H2051   1.083       .  S
C2043      C2044   1.402   1_556  A
C2043      H2052   1.084       .  S
C2044      C2050   1.402       .  A
C2044      C2045   1.412       .  A
C2045      C2047   1.405       .  A
C2045      C2046   1.407   1_565  A
C2046      H2053   1.084       .  S
C2047      C2048   1.401       .  A
C2047      H2054   1.084       .  S
C2048      C2049   1.405       .  A
C2048      H2055   1.083       .  S
C2049      C2050   1.409       .  A
C2050      H2056   1.084       .  S
C2057      C2058   1.406       .  A
C2057      C2062   1.405       .  A
C2058      C2059   1.398       .  A
C2058      H2067   1.084       .  S
C2059      C2060   1.401       .  A
C2059      H2068   1.083       .  S
C2060      C2066   1.410       .  A
C2060      C2061   1.416       .  A
C2061      C2063   1.402       .  A
C2061      C2062   1.412       .  A
C2062      H2069   1.083       .  S
C2063      C2064   1.400       .  A
C2063      H2070   1.083   1_556  S
C2064      C2065   1.407       .  A
C2064      H2071   1.084   1_556  S
C2065      C2066   1.406       .  A
C2066      H2072   1.083       .  S
C2073      C2074   1.407       .  A
C2073      C2078   1.409       .  A
C2074      C2075   1.392       .  A
C2074      H2083   1.083       .  S
C2075      C2076   1.399       .  A
C2075      H2084   1.084       .  S
C2076      C2082   1.398       .  A
C2076      C2077   1.414       .  A
C2077      C2079   1.406       .  A
C2077      C2078   1.406       .  A
C2078      H2085   1.084       .  S
C2079      C2080   1.401       .  A
C2079      H2086   1.084       .  S
C2080      C2081   1.403       .  A
C2080      H2087   1.083       .  S
C2081      C2082   1.401       .  A
C2082      H2088   1.085       .  S
C2089      C2090   1.407       .  A
C2089      C2094   1.408       .  A
C2090      C2091   1.390       .  A
C2090      H2099   1.083       .  S
C2091      C2092   1.398       .  A
C2091      H2100   1.084       .  S
C2092      C2098   1.395       .  A
C2092      C2093   1.414       .  A
C2093      C2095   1.406       .  A
C2093      C2094   1.405       .  A
C2094      H2101   1.084       .  S
C2095      C2096   1.401       .  A
C2095      H2102   1.084       .  S
C2096      C2097   1.402       .  A
C2096      H2103   1.083       .  S
C2097      C2098   1.399       .  A
C2098      H2104   1.086       .  S
C2105      C2106   1.403       .  A
C2105      C2110   1.411       .  A
C2106      C2107   1.397       .  A
C2106      H2115   1.083       .  S
C2107      C2108   1.403       .  A
C2107      H2116   1.083       .  S
C2108      C2114   1.403   1_655  A
C2108      C2109   1.413       .  A
C2109      C2111   1.408       .  A
C2109      C2110   1.410       .  A
C2110      H2117   1.084       .  S
C2111      C2112   1.405   1_655  A
C2111      H2118   1.084       .  S
C2112      C2113   1.403       .  A
C2112      H2119   1.083       .  S
C2113      C2114   1.406       .  A
C2114      H2120   1.085       .  S
C2121      C2122   1.403       .  A
C2121      C2126   1.405       .  A
C2122      C2123   1.391       .  A
C2122      H2131   1.084   1_545  S
C2123      C2124   1.398       .  A
C2123      H2132   1.084       .  S
C2124      C2130   1.401       .  A
C2124      C2125   1.417       .  A
C2125      C2127   1.404       .  A
C2125      C2126   1.412       .  A
C2126      H2133   1.084       .  S
C2127      C2128   1.403       .  A
C2127      H2134   1.083       .  S
C2128      C2129   1.405       .  A
C2128      H2135   1.084       .  S
C2129      C2130   1.401       .  A
C2130      H2136   1.085       .  S
C2137      C2138   1.402       .  A
C2137      C2142   1.412       .  A
C2138      C2139   1.404       .  A
C2138      H2147   1.083       .  S
C2139      C2140   1.408       .  A
C2139      H2148   1.083       .  S
C2140      C2146   1.407       .  A
C2140      C2141   1.411       .  A
C2141      C2143   1.408       .  A
C2141      C2142   1.406       .  A
C2142      H2149   1.084       .  S
C2143      C2144   1.404       .  A
C2143      H2150   1.083       .  S
C2144      C2145   1.401       .  A
C2144      H2151   1.083       .  S
C2145      C2146   1.411       .  A
C2146      H2152   1.084       .  S
C2153      C2154   1.402   1_565  A
C2153      C2158   1.401   1_556  A
C2154      C2155   1.402   1_556  A
C2154      H2163   1.083       .  S
C2155      C2156   1.405       .  A
C2155      H2164   1.083       .  S
C2156      C2162   1.411       .  A
C2156      C2157   1.416       .  A
C2157      C2159   1.398   1_545  A
C2157      C2158   1.404   1_545  A
C2158      H2165   1.085       .  S
C2159      C2160   1.393   1_565  A
C2159      H2166   1.084       .  S
C2160      C2161   1.407       .  A
C2160      H2167   1.082       .  S
C2161      C2162   1.408       .  A
C2162      H2168   1.084       .  S
C2169      C2170   1.405       .  A
C2169      C2174   1.406       .  A
C2170      C2171   1.398       .  A
C2170      H2179   1.083       .  S
C2171      C2172   1.402   1_556  A
C2171      H2180   1.084   1_455  S
C2172      C2178   1.405   1_455  A
C2172      C2173   1.415       .  A
C2173      C2175   1.404       .  A
C2173      C2174   1.406   1_554  A
C2174      H2181   1.085       .  S
C2175      C2176   1.398       .  A
C2175      H2182   1.084       .  S
C2176      C2177   1.402       .  A
C2176      H2183   1.084       .  S
C2177      C2178   1.403   1_455  A
C2178      H2184   1.085       .  S
C2185      C2186   1.406       .  A
C2185      C2190   1.405       .  A
C2186      C2187   1.400       .  A
C2186      H2195   1.084       .  S
C2187      C2188   1.402       .  A
C2187      H2196   1.084       .  S
C2188      C2194   1.412       .  A
C2188      C2189   1.416       .  A
C2189      C2191   1.401       .  A
C2189      C2190   1.410       .  A
C2190      H2197   1.085       .  S
C2191      C2192   1.398       .  A
C2191      H2198   1.084       .  S
C2192      C2193   1.406       .  A
C2192      H2199   1.084       .  S
C2193      C2194   1.405       .  A
C2194      H2200   1.084       .  S
C2201      C2202   1.410       .  A
C2201      C2206   1.404       .  A
C2202      C2203   1.401       .  A
C2202      H2211   1.083       .  S
C2203      C2204   1.402       .  A
C2203      H2212   1.083       .  S
C2204      C2210   1.414       .  A
C2204      C2205   1.416       .  A
C2205      C2207   1.396       .  A
C2205      C2206   1.407       .  A
C2206      H2213   1.084       .  S
C2207      C2208   1.394       .  A
C2207      H2214   1.083       .  S
C2208      C2209   1.412       .  A
C2208      H2215   1.083       .  S
C2209      C2210   1.408       .  A
C2210      H2216   1.083       .  S
C2217      C2218   1.403       .  A
C2217      C2222   1.415       .  A
C2218      C2219   1.395       .  A
C2218      H2227   1.083       .  S
C2219      C2220   1.402       .  A
C2219      H2228   1.081       .  S
C2220      C2226   1.401       .  A
C2220      C2221   1.411       .  A
C2221      C2223   1.411       .  A
C2221      C2222   1.412       .  A
C2222      H2229   1.084       .  S
C2223      C2224   1.408       .  A
C2223      H2230   1.083       .  S
C2224      C2225   1.402       .  A
C2224      H2231   1.083       .  S
C2225      C2226   1.407       .  A
C2226      H2232   1.084       .  S
C2233      C2234   1.409       .  A
C2233      C2238   1.404       .  A
C2234      C2235   1.398       .  A
C2234      H2243   1.083       .  S
C2235      C2236   1.401       .  A
C2235      H2244   1.083       .  S
C2236      C2242   1.407       .  A
C2236      C2237   1.416       .  A
C2237      C2239   1.400       .  A
C2237      C2238   1.403       .  A
C2238      H2245   1.084       .  S
C2239      C2240   1.394       .  A
C2239      H2246   1.083       .  S
C2240      C2241   1.402       .  A
C2240      H2247   1.084       .  S
C2241      C2242   1.403       .  A
C2242      H2248   1.084       .  S
C2249      C2250   1.404       .  A
C2249      C2254   1.401       .  A
C2250      C2251   1.390       .  A
C2250      H2259   1.084       .  S
C2251      C2252   1.398       .  A
C2251      H2260   1.084       .  S
C2252      C2258   1.397       .  A
C2252      C2253   1.417       .  A
C2253      C2255   1.401       .  A
C2253      C2254   1.405       .  A
C2254      H2261   1.085       .  S
C2255      C2256   1.398       .  A
C2255      H2262   1.084       .  S
C2256      C2257   1.408       .  A
C2256      H2263   1.083       .  S
C2257      C2258   1.403       .  A
C2258      H2264   1.085       .  S
C2265      C2266   1.408       .  A
C2265      C2270   1.407       .  A
C2266      C2267   1.399       .  A
C2266      H2275   1.083       .  S
C2267      C2268   1.401       .  A
C2267      H2276   1.083       .  S
C2268      C2274   1.410       .  A
C2268      C2269   1.416       .  A
C2269      C2271   1.401       .  A
C2269      C2270   1.410       .  A
C2270      H2277   1.084       .  S
C2271      C2272   1.399       .  A
C2271      H2278   1.084       .  S
C2272      C2273   1.405       .  A
C2272      H2279   1.083       .  S
C2273      C2274   1.404       .  A
C2274      H2280   1.084       .  S
C2281      C2282   1.406       .  A
C2281      C2286   1.406       .  A
C2282      C2283   1.398       .  A
C2282      H2291   1.084       .  S
C2283      C2284   1.401       .  A
C2283      H2292   1.083       .  S
C2284      C2290   1.410       .  A
C2284      C2285   1.417       .  A
C2285      C2287   1.401       .  A
C2285      C2286   1.410       .  A
C2286      H2293   1.084       .  S
C2287      C2288   1.399       .  A
C2287      H2294   1.083       .  S
C2288      C2289   1.404       .  A
C2288      H2295   1.082       .  S
C2289      C2290   1.403       .  A
C2290      H2296   1.084       .  S
C2297      C2298   1.403       .  A
C2297      C2302   1.412       .  A
C2298      C2299   1.407       .  A
C2298      H2307   1.083       .  S
C2299      C2300   1.410   1_655  A
C2299      H2308   1.083   1_655  S
C2300      C2306   1.410       .  A
C2300      C2301   1.411   1_455  A
C2301      C2303   1.406       .  A
C2301      C2302   1.404       .  A
C2302      H2309   1.084       .  S
C2303      C2304   1.401   1_655  A
C2303      H2310   1.083       .  S
C2304      C2305   1.401       .  A
C2304      H2311   1.083       .  S
C2305      C2306   1.412       .  A
C2306      H2312   1.084       .  S
C2313      C2314   1.401       .  A
C2313      C2318   1.404       .  A
C2314      C2315   1.388       .  A
C2314      H2323   1.084       .  S
C2315      C2316   1.397       .  A
C2315      H2324   1.084       .  S
C2316      C2322   1.393       .  A
C2316      C2317   1.416       .  A
C2317      C2319   1.404       .  A
C2317      C2318   1.407       .  A
C2318      H2325   1.085       .  S
C2319      C2320   1.402       .  A
C2319      H2326   1.084       .  S
C2320      C2321   1.407       .  A
C2320      H2327   1.083       .  S
C2321      C2322   1.401       .  A
C2322      H2328   1.085       .  S
C2329      C2330   1.407       .  A
C2329      C2334   1.408       .  A
C2330      C2331   1.393       .  A
C2330      H2339   1.082       .  S
C2331      C2332   1.399       .  A
C2331      H2340   1.084       .  S
C2332      C2338   1.398       .  A
C2332      C2333   1.414       .  A
C2333      C2335   1.405       .  A
C2333      C2334   1.404       .  A
C2334      H2341   1.084       .  S
C2335      C2336   1.400       .  A
C2335      H2342   1.083       .  S
C2336      C2337   1.401       .  A
C2336      H2343   1.082       .  S
C2337      C2338   1.400       .  A
C2338      H2344   1.085       .  S
C2345      C2346   1.405       .  A
C2345      C2350   1.407       .  A
C2346      C2347   1.403       .  A
C2346      H2355   1.083       .  S
C2347      C2348   1.407   1_655  A
C2347      H2356   1.084       .  S
C2348      C2354   1.407       .  A
C2348      C2349   1.413       .  A
C2349      C2351   1.403       .  A
C2349      C2350   1.399   1_455  A
C2350      H2357   1.085       .  S
C2351      C2352   1.396       .  A
C2351      H2358   1.084       .  S
C2352      C2353   1.401       .  A
C2352      H2359   1.083       .  S
C2353      C2354   1.408       .  A
C2354      H2360   1.085       .  S
C2361      C2362   1.407       .  A
C2361      C2366   1.409       .  A
C2362      C2363   1.398       .  A
C2362      H2371   1.083       .  S
C2363      C2364   1.402       .  A
C2363      H2372   1.084       .  S
C2364      C2370   1.406       .  A
C2364      C2365   1.413       .  A
C2365      C2367   1.404       .  A
C2365      C2366   1.408       .  A
C2366      H2373   1.084       .  S
C2367      C2368   1.401       .  A
C2367      H2374   1.084       .  S
C2368      C2369   1.406       .  A
C2368      H2375   1.083       .  S
C2369      C2370   1.409       .  A
C2370      H2376   1.084       .  S
C2377      C2378   1.405       .  A
C2377      C2382   1.400       .  A
C2378      C2379   1.407   1_545  A
C2378      H2387   1.083       .  S
C2379      C2380   1.408       .  A
C2379      H2388   1.083       .  S
C2380      C2386   1.418       .  A
C2380      C2381   1.416       .  A
C2381      C2383   1.396       .  A
C2381      C2382   1.400   1_565  A
C2382      H2389   1.086       .  S
C2383      C2384   1.389       .  A
C2383      H2390   1.084       .  S
C2384      C2385   1.407       .  A
C2384      H2391   1.084       .  S
C2385      C2386   1.410       .  A
C2386      H2392   1.083       .  S
C2393      C2394   1.403       .  A
C2393      C2398   1.401       .  A
C2394      C2395   1.397       .  A
C2394      H2403   1.083       .  S
C2395      C2396   1.402       .  A
C2395      H2404   1.084       .  S
C2396      C2402   1.402       .  A
C2396      C2397   1.416       .  A
C2397      C2399   1.401       .  A
C2397      C2398   1.399       .  A
C2398      H2405   1.086       .  S
C2399      C2400   1.394   1_655  A
C2399      H2406   1.084   1_655  S
C2400      C2401   1.401   1_455  A
C2400      H2407   1.084       .  S
C2401      C2402   1.400       .  A
C2402      H2408   1.085       .  S
C2409      C2410   1.401       .  A
C2409      C2414   1.403       .  A
C2410      C2411   1.390       .  A
C2410      H2419   1.084       .  S
C2411      C2412   1.399       .  A
C2411      H2420   1.084       .  S
C2412      C2418   1.394       .  A
C2412      C2413   1.416       .  A
C2413      C2415   1.405       .  A
C2413      C2414   1.405       .  A
C2414      H2421   1.085       .  S
C2415      C2416   1.401       .  A
C2415      H2422   1.084       .  S
C2416      C2417   1.403       .  A
C2416      H2423   1.083       .  S
C2417      C2418   1.401       .  A
C2418      H2424   1.086       .  S
C2425      C2426   1.404       .  A
C2425      C2430   1.414       .  A
C2426      C2427   1.393       .  A
C2426      H2435   1.084       .  S
C2427      C2428   1.400       .  A
C2427      H2436   1.083       .  S
C2428      C2434   1.398       .  A
C2428      C2429   1.412       .  A
C2429      C2431   1.411       .  A
C2429      C2430   1.413       .  A
C2430      H2437   1.084       .  S
C2431      C2432   1.409       .  A
C2431      H2438   1.083       .  S
C2432      C2433   1.403       .  A
C2432      H2439   1.083       .  S
C2433      C2434   1.404       .  A
C2434      H2440   1.082       .  S
C2441      C2442   1.403       .  A
C2441      C2446   1.407       .  A
C2442      C2443   1.408       .  A
C2442      H2451   1.083       .  S
C2443      C2444   1.410       .  A
C2443      H2452   1.084       .  S
C2444      C2450   1.412       .  A
C2444      C2445   1.412       .  A
C2445      C2447   1.400       .  A
C2445      C2446   1.399       .  A
C2446      H2453   1.085       .  S
C2447      C2448   1.394       .  A
C2447      H2454   1.085       .  S
C2448      C2449   1.406       .  A
C2448      H2455   1.083       .  S
C2449      C2450   1.413       .  A
C2450      H2456   1.084       .  S
C2457      C2458   1.402       .  A
C2457      C2462   1.412       .  A
C2458      C2459   1.403       .  A
C2458      H2467   1.083       .  S
C2459      C2460   1.408       .  A
C2459      H2468   1.084       .  S
C2460      C2466   1.406       .  A
C2460      C2461   1.410       .  A
C2461      C2463   1.408       .  A
C2461      C2462   1.406       .  A
C2462      H2469   1.084       .  S
C2463      C2464   1.403       .  A
C2463      H2470   1.084       .  S
C2464      C2465   1.402       .  A
C2464      H2471   1.083       .  S
C2465      C2466   1.412       .  A
C2466      H2472   1.085       .  S
C2473      C2474   1.408       .  A
C2473      C2478   1.415       .  A
C2474      C2475   1.397       .  A
C2474      H2483   1.083       .  S
C2475      C2476   1.401       .  A
C2475      H2484   1.084       .  S
C2476      C2482   1.404       .  A
C2476      C2477   1.411       .  A
C2477      C2479   1.408       .  A
C2477      C2478   1.414       .  A
C2478      H2485   1.084       .  S
C2479      C2480   1.407       .  A
C2479      H2486   1.083       .  S
C2480      C2481   1.407       .  A
C2480      H2487   1.083       .  S
C2481      C2482   1.411       .  A
C2482      H2488   1.084       .  S
C2489      C2490   1.405       .  A
C2489      C2494   1.404       .  A
C2490      C2491   1.394       .  A
C2490      H2499   1.081       .  S
C2491      C2492   1.400       .  A
C2491      H2500   1.084       .  S
C2492      C2498   1.400       .  A
C2492      C2493   1.416       .  A
C2493      C2495   1.402       .  A
C2493      C2494   1.401       .  A
C2494      H2501   1.084       .  S
C2495      C2496   1.395       .  A
C2495      H2502   1.083       .  S
C2496      C2497   1.401       .  A
C2496      H2503   1.084       .  S
C2497      C2498   1.399       .  A
C2498      H2504   1.085       .  S
C2505      C2506   1.403       .  A
C2505      C2510   1.402       .  A
C2506      C2507   1.400       .  A
C2506      H2515   1.083       .  S
C2507      C2508   1.405       .  A
C2507      H2516   1.084       .  S
C2508      C2514   1.406       .  A
C2508      C2509   1.414       .  A
C2509      C2511   1.399       .  A
C2509      C2510   1.400       .  A
C2510      H2517   1.085       .  S
C2511      C2512   1.393       .  A
C2511      H2518   1.084       .  S
C2512      C2513   1.408       .  A
C2512      H2519   1.083       .  S
C2513      C2514   1.409       .  A
C2514      H2520   1.084       .  S
