geometry optimzed in LAMMPS
_audit_creation_date              2020-11-30 
_audit_creation_method            'lammps2cif' 
_symmetry_space_group_name_H-M    'P1' 
_symmetry_Int_Tables_number       1 
_symmetry_cell_setting            triclinic 
loop_ 
_symmetry_equiv_pos_as_xyz 
  x,y,z 
_cell_length_a                    38.71032038383774 
_cell_length_b                    38.705552600982344 
_cell_length_c                    35.47731587780568 
_cell_angle_alpha                 90.00126679741082 
_cell_angle_beta                  89.9999167207274 
_cell_angle_gamma                 90.05990522428536 
loop_ 
_atom_site_label 
_atom_site_type_symbol 
_atom_site_fract_x 
_atom_site_fract_y 
_atom_site_fract_z 
_atom_site_charge 
O1          O  0.52261306  0.48155553  0.21802053    -0.83070
O2          O  0.50946354  0.44452100  0.28205389    -0.80120
C3          C  0.49346512  0.42722017  0.30620247     1.00390
O4          O  0.46245656  0.43507200  0.31382275    -0.80150
O5          O  0.45631629  0.50810217  0.32317921    -0.82800
C6          C  0.44790945  0.03879272  0.31592332     1.04920
O7          O  0.44566193  0.04898362  0.28180489    -0.75560
O8          O  0.50698237  0.03178912  0.24152208    -0.75750
C9          C  0.03017843  0.01146423  0.22958623     1.04870
O10         O  0.46214988  0.45099144  0.18544776    -0.83070
O11         O  0.45148908  0.41197763  0.24548576    -0.80130
C12         C  0.41930700  0.41483858  0.24995969     1.00410
O13         O  0.40561613  0.44078096  0.26439490    -0.80160
O14         O  0.39357692  0.50694162  0.27983450    -0.82770
C15         C  0.38401953  0.01625481  0.24724838     1.04880
O16         O  0.40594460  0.01959723  0.22109913    -0.75590
O17         O  0.46472776  0.00717471  0.17792657    -0.75730
C18         C  0.46056903  0.97684987  0.16458192     1.04840
Cr19       Cr  0.48470760  0.44993868  0.23424168     1.93740
Cr20       Cr  0.43196635  0.47363549  0.29293419     1.93210
Cr21       Cr  0.45640858  0.02421040  0.23203640     1.39100
O22         O  0.45785398  0.48272843  0.25293036    -1.20820
O23         O  0.25702188  0.03188342  0.22442283    -0.83070
O24         O  0.19565528  0.04904748  0.18410671    -0.80120
C25         C  0.19773787  0.03878368  0.14999672     1.00390
O26         O  0.20601074  0.50803999  0.14275909    -0.80150
O27         O  0.21215429  0.43499883  0.15242007    -0.82800
C28         C  0.24320317  0.42720336  0.15991674     1.04920
O29         O  0.25925634  0.44454100  0.18399170    -0.75560
O30         O  0.27259923  0.48163794  0.24793736    -0.75750
C31         C  0.28019569  0.01153927  0.23639229     1.04870
O32         O  0.21475700  0.00746551  0.28807661    -0.83070
O33         O  0.15594635  0.01985892  0.24495425    -0.80130
C34         C  0.13397544  0.01643535  0.21886205     1.00410
O35         O  0.14347582  0.50706457  0.18628902    -0.80160
O36         O  0.15542756  0.44096358  0.20207598    -0.82770
C37         C  0.16910098  0.41510634  0.21671373     1.04880
O38         O  0.20131032  0.41213321  0.22084691    -0.75590
O39         O  0.21217860  0.45126379  0.28070386    -0.75730
C40         C  0.21061645  0.97716916  0.30149686     1.04840
Cr41       Cr  0.20641682  0.02438617  0.23393701     1.93740
Cr42       Cr  0.18175672  0.47366511  0.17325305     1.93210
Cr43       Cr  0.23461720  0.45007225  0.23186248     1.39100
O44         O  0.20777741  0.48285995  0.21314220    -1.20820
O45         O  0.35954139  0.37304412  0.47444792    -0.83070
O46         O  0.34189993  0.31171387  0.43434411    -0.80120
C47         C  0.35176254  0.31412181  0.40013323     1.00390
O48         O  0.38234053  0.32275677  0.39260429    -0.80150
O49         O  0.45546451  0.32903843  0.40105016    -0.82800
C50         C  0.46351832  0.35997017  0.40889305     1.04920
O51         O  0.44644929  0.37583435  0.43331811    -0.75560
O52         O  0.40988734  0.38865854  0.49773946    -0.75750
C53         C  0.37993550  0.39623370  0.48634239     1.04870
O54         O  0.38460497  0.33081677  0.53777064    -0.83070
O55         O  0.37183733  0.27204582  0.49462044    -0.80130
C56         C  0.37491196  0.25017418  0.46838377     1.00410
O57         O  0.38401626  0.25978025  0.43571828    -0.80160
O58         O  0.45038208  0.27194557  0.45010372    -0.82770
C59         C  0.47646161  0.28563960  0.46429808     1.04880
O60         O  0.47926943  0.31778568  0.46918497    -0.75590
O61         O  0.44070578  0.32805422  0.52980006    -0.75730
C62         C  0.41498146  0.32655941  0.55089506     1.04840
Cr63       Cr  0.36714737  0.32249140  0.48382266     1.93740
Cr64       Cr  0.41714227  0.29834494  0.42226079     1.93210
Cr65       Cr  0.44140009  0.35085517  0.48105093     1.39100
O66         O  0.40845963  0.32402301  0.46253088    -1.20820
O67         O  0.40927443  0.13889850  0.46813630    -0.83070
O68         O  0.44650010  0.12545483  0.53197063    -0.80120
C69         C  0.46386334  0.10936963  0.55597486     1.00390
O70         O  0.45625423  0.07821082  0.56320666    -0.80150
O71         O  0.38335438  0.07200885  0.57336916    -0.82800
C72         C  0.35251843  0.06392677  0.56625530     1.04920
O73         O  0.34209054  0.06186037  0.53219060    -0.75560
O74         O  0.35900955  0.12316406  0.49155246    -0.75750
C75         C  0.37934307  0.14639161  0.47956991     1.04870
O76         O  0.43948295  0.07866416  0.43509291    -0.83070
O77         O  0.47871165  0.06765268  0.49472666    -0.80130
C78         C  0.47554866  0.03539760  0.49824902     1.00410
O79         O  0.44988279  0.02163902  0.51324741    -0.80160
O80         O  0.38393235  0.50959768  0.52977603    -0.82770
C81         C  0.37454590  0.50005067  0.49723712     1.04880
O82         O  0.37099155  0.02202530  0.47118196    -0.75590
O83         O  0.38324034  0.08075700  0.42794296    -0.75730
C84         C  0.41351471  0.07681002  0.41442385     1.04840
Cr85       Cr  0.44081127  0.10094514  0.48401546     1.93740
Cr86       Cr  0.41747550  0.04785196  0.54253702     1.93210
Cr87       Cr  0.36650514  0.07252366  0.48216962     1.39100
O88         O  0.40808302  0.07399431  0.50279749    -1.20820
O89         O  0.27261636  0.23135991  0.71801406    -0.83070
O90         O  0.25990120  0.19475349  0.78247352    -0.80120
C91         C  0.24409034  0.17755412  0.80685926     1.00390
O92         O  0.21309761  0.18533883  0.81464172    -0.80150
O93         O  0.20669003  0.25834956  0.82367365    -0.82800
C94         C  0.19821170  0.28899379  0.81628387     1.04920
O95         O  0.19595573  0.29903899  0.78211651    -0.75560
O96         O  0.25723308  0.28161894  0.74160114    -0.75750
C97         C  0.28033082  0.26126390  0.72946269     1.04870
O98         O  0.21193599  0.20059955  0.68615786    -0.83070
O99         O  0.20184932  0.16178870  0.74655224    -0.80130
C100        C  0.16967390  0.16457007  0.75109338     1.00410
O101        O  0.15596704  0.19053297  0.76548437    -0.80160
O102        O  0.14383322  0.25679136  0.78056324    -0.82770
C103        C  0.13420100  0.26605562  0.74798579     1.04880
O104        O  0.15605714  0.26939953  0.72176862    -0.75590
O105        O  0.21459866  0.25675541  0.67838237    -0.75730
C106        C  0.21023024  0.22639820  0.66519969     1.04840
Cr107      Cr  0.23485718  0.19980225  0.73479308     1.93740
Cr108      Cr  0.18235650  0.22365677  0.79369507     1.93210
Cr109      Cr  0.20655954  0.27403717  0.73243900     1.39100
O110        O  0.20806816  0.23263524  0.75350828    -1.20820
O111        O  0.50727091  0.28164259  0.72481395    -0.83070
O112        O  0.44620132  0.29891521  0.68403174    -0.80120
C113        C  0.44870552  0.28870863  0.64992502     1.00390
O114        O  0.45696404  0.25796972  0.64276759    -0.80150
O115        O  0.46303094  0.18509256  0.65211744    -0.82800
C116        C  0.49405835  0.17736121  0.65976833     1.04920
O117        O  0.50990712  0.19452489  0.68416216    -0.75560
O118        O  0.52268447  0.23139900  0.74843667    -0.75750
C119        C  0.03036732  0.26129325  0.73694250     1.04870
O120        O  0.46460421  0.25701196  0.78810071    -0.83070
O121        O  0.40607618  0.26954088  0.74456049    -0.80130
C122        C  0.38424913  0.26615499  0.71832117     1.00410
O123        O  0.39396963  0.25689759  0.68577038    -0.80160
O124        O  0.40593965  0.19067926  0.70129112    -0.82770
C125        C  0.41960583  0.16472620  0.71574633     1.04880
O126        O  0.45177896  0.16187393  0.72027199    -0.75590
O127        O  0.46205162  0.20082448  0.78052332    -0.75730
C128        C  0.46040408  0.22667234  0.80141498     1.04840
Cr129      Cr  0.45661143  0.27411436  0.73392934     1.93740
Cr130      Cr  0.43241925  0.22356794  0.67289180     1.93210
Cr131      Cr  0.48488388  0.19983466  0.73184661     1.39100
O132        O  0.45812900  0.23264267  0.71303561    -1.20820
O133        O  0.15956922  0.38918396  0.96934682    -0.83070
O134        O  0.19697040  0.37481620  0.03284474    -0.80120
C135        C  0.21428519  0.35834421  0.05658034     1.00390
O136        O  0.20635494  0.32722002  0.06351594    -0.80150
O137        O  0.13333438  0.32173680  0.07351478    -0.82800
C138        C  0.10243570  0.31393268  0.06634758     1.04920
O139        O  0.09202263  0.31192815  0.03226835    -0.75560
O140        O  0.10905463  0.37314029  0.99193327    -0.75750
C141        C  0.12946222  0.39647675  0.98043933     1.04870
O142        O  0.18955232  0.32917138  0.93534100    -0.83070
O143        O  0.22860913  0.31708878  0.99479854    -0.80130
C144        C  0.22526063  0.28482775  0.99824075     1.00410
O145        O  0.19948664  0.27115279  0.01312900    -0.80160
O146        O  0.13340458  0.25950459  0.02960864    -0.82770
C147        C  0.12410050  0.25013290  0.99698488     1.04880
O148        O  0.12085146  0.27221335  0.97101411    -0.75590
O149        O  0.13331324  0.33102473  0.92813364    -0.75730
C150        C  0.16361492  0.32723725  0.91464308     1.04840
Cr151      Cr  0.19096630  0.35084893  0.98458735     1.93740
Cr152      Cr  0.16726633  0.29742499  0.04258766     1.93210
Cr153      Cr  0.11651619  0.32262600  0.98230161     1.39100
O154        O  0.15808003  0.32387972  0.00303296    -1.20820
O155        O  0.10899224  0.12315427  0.97418534    -0.83070
O156        O  0.09211661  0.06190181  0.93374171    -0.80120
C157        C  0.10266322  0.06376821  0.89969580     1.00390
O158        O  0.13360385  0.07150474  0.89262667    -0.80150
O159        O  0.20658060  0.07701166  0.90303319    -0.82800
C160        C  0.21442683  0.10817096  0.90987987     1.04920
O161        O  0.19700143  0.12469353  0.93347424    -0.75560
O162        O  0.15947544  0.13921677  0.99683766    -0.75750
C163        C  0.12938008  0.14649973  0.98571956     1.04870
O164        O  0.13305086  0.08098039  0.03805284    -0.83070
O165        O  0.12069734  0.02219894  0.99516806    -0.80130
C166        C  0.12405463  0.50008945  0.96924642     1.00410
O167        O  0.13346139  0.50942439  0.93665783    -0.80160
O168        O  0.19943711  0.02107540  0.95359110    -0.82770
C169        C  0.22512020  0.03477686  0.96863553     1.04880
O170        O  0.22853353  0.06705099  0.97182182    -0.75590
O171        O  0.18932288  0.07928180  0.03105525    -0.75730
C172        C  0.16332116  0.07722233  0.05163648     1.04840
Cr173      Cr  0.11641943  0.07261308  0.98382606     1.93740
Cr174      Cr  0.16739558  0.04728397  0.92382394     1.93210
Cr175      Cr  0.19087751  0.10084759  0.98177618     1.39100
O176        O  0.15804633  0.07384389  0.96325966    -1.20820
O177        O  0.11503953  0.11790415  0.46817003    -0.83070
O178        O  0.07778899  0.13140917  0.53198132    -0.80120
C179        C  0.06038509  0.14752472  0.55592547     1.00390
O180        O  0.06799842  0.17868652  0.56313182    -0.80150
O181        O  0.14086801  0.18464306  0.57344086    -0.82800
C182        C  0.17175139  0.19259945  0.56642239     1.04920
O183        O  0.18225139  0.19476345  0.53237959    -0.75560
O184        O  0.16536810  0.13362679  0.49144495    -0.75750
C185        C  0.14501495  0.11041552  0.47946669     1.04870
O186        O  0.08491525  0.17816194  0.43512288    -0.83070
O187        O  0.04572528  0.18928964  0.49468647    -0.80130
C188        C  0.04897659  0.22154352  0.49815473     1.00410
O189        O  0.07464179  0.23525514  0.51320513    -0.80160
O190        O  0.14057504  0.24715145  0.52997934    -0.82770
C191        C  0.14993189  0.25676021  0.49745320     1.04880
O192        O  0.15346922  0.23481878  0.47136879    -0.75590
O193        O  0.14116914  0.17625109  0.42796927    -0.75730
C194        C  0.11087853  0.18017136  0.41447404     1.04840
Cr195      Cr  0.08355481  0.15590402  0.48402931     1.93740
Cr196      Cr  0.10690073  0.20895114  0.54257454     1.93210
Cr197      Cr  0.15789589  0.18429553  0.48224264     1.39100
O198        O  0.11630533  0.18281559  0.50283358    -1.20820
O199        O  0.16484414  0.38374811  0.47432438    -0.83070
O200        O  0.18249698  0.44499318  0.43404889    -0.80120
C201        C  0.17259778  0.44257514  0.39985037     1.00390
O202        O  0.14199751  0.43399600  0.39235007    -0.80150
O203        O  0.06886699  0.42784342  0.40086274    -0.82800
C204        C  0.06081744  0.39691086  0.40870864     1.04920
O205        O  0.07793807  0.38103757  0.43307894    -0.75560
O206        O  0.11444881  0.36818736  0.49753346    -0.75750
C207        C  0.14443341  0.36058807  0.48625822     1.04870
O208        O  0.13979381  0.42615600  0.53750449    -0.83070
O209        O  0.15262761  0.98479438  0.49428549    -0.80130
C210        C  0.14955730  0.00665037  0.46804051     1.00410
O211        O  0.14046227  0.99702106  0.43538148    -0.80160
O212        O  0.07409846  0.48496194  0.44989750    -0.82770
C213        C  0.04802949  0.47130812  0.46416332     1.04880
O214        O  0.04515401  0.43915228  0.46894972    -0.75590
O215        O  0.08368773  0.42884718  0.52950401    -0.75730
C216        C  0.10941156  0.43047889  0.55057662     1.04840
Cr217      Cr  0.15726645  0.43433423  0.48356138     1.93740
Cr218      Cr  0.10726261  0.45849262  0.42200788     1.93210
Cr219      Cr  0.08298603  0.40602096  0.48080258     1.39100
O220        O  0.11594977  0.43281607  0.46227749    -1.20820
O221        O  0.25138585  0.02589669  0.71854682    -0.83070
O222        O  0.26508458  0.06327158  0.78228154    -0.80120
C223        C  0.28131749  0.08058713  0.80624352     1.00390
O224        O  0.31236540  0.07270856  0.81357020    -0.80150
O225        O  0.31778119  0.99978582  0.82361326    -0.82800
C226        C  0.32564132  0.46889836  0.81660072     1.04920
O227        O  0.32794481  0.45843877  0.78256450    -0.75560
O228        O  0.26699960  0.47548928  0.74166467    -0.75750
C229        C  0.24384340  0.49587254  0.72976138     1.04870
O230        O  0.31184720  0.05591805  0.68542034    -0.83070
O231        O  0.32316932  0.09507609  0.74506627    -0.80130
C232        C  0.35538021  0.09188408  0.74902822     1.00410
O233        O  0.36894475  0.06605078  0.76385459    -0.80160
O234        O  0.38047527  0.99994827  0.78030265    -0.82770
C235        C  0.39007098  0.49063432  0.74775094     1.04880
O236        O  0.36814387  0.48724733  0.72163632    -0.75590
O237        O  0.30968850  0.49967124  0.67824367    -0.75730
C238        C  0.31379457  0.02994751  0.66476770     1.04840
Cr239      Cr  0.28957301  0.05733919  0.73434613     1.93740
Cr240      Cr  0.34240694  0.03372629  0.79295760     1.93210
Cr241      Cr  0.31763799  0.48290133  0.73248331     1.39100
O242        O  0.31631305  0.02449301  0.75313250    -1.20820
O243        O  0.01698953  0.47554884  0.72430431    -0.83070
O244        O  0.07797450  0.45844734  0.68342624    -0.80120
C245        C  0.07578499  0.46890486  0.64937780     1.00390
O246        O  0.06799388  0.99980941  0.64233191    -0.80150
O247        O  0.06257580  0.07274400  0.65241299    -0.82800
C248        C  0.03150208  0.08058288  0.65965195     1.04920
O249        O  0.01523966  0.06325617  0.68357740    -0.75560
O250        O  0.00139873  0.02599136  0.74734606    -0.75750
C251        C  0.99384175  0.49595105  0.73619996     1.04870
O252        O  0.05968141  0.49972153  0.78771960    -0.83070
O253        O  0.11814549  0.48721535  0.74440020    -0.80130
C254        C  0.14010365  0.49058830  0.71831649     1.00410
O255        O  0.13056374  0.99993257  0.68576278    -0.80160
O256        O  0.11907860  0.06604478  0.70227525    -0.82770
C257        C  0.10551067  0.09185303  0.71715935     1.04880
O258        O  0.07328305  0.09510182  0.72091716    -0.75590
O259        O  0.06182497  0.05597351  0.78054170    -0.75730
C260        C  0.06378028  0.03000080  0.80118928     1.04840
Cr261      Cr  0.06764435  0.48292486  0.73349962     1.93740
Cr262      Cr  0.09256165  0.03374483  0.67307140     1.93210
Cr263      Cr  0.03963639  0.05738175  0.73157375     1.39100
O264        O  0.06638492  0.02451376  0.71284343    -1.20820
O265        O  0.00136884  0.27568096  0.21822558    -0.83070
O266        O  0.01460310  0.31274586  0.28223085    -0.80120
C267        C  0.03062843  0.33008103  0.30632814     1.00390
O268        O  0.06162906  0.32220470  0.31396422    -0.80150
O269        O  0.06771975  0.24913954  0.32347637    -0.82800
C270        C  0.07609608  0.21843176  0.31622391     1.04920
O271        O  0.07822381  0.20819765  0.28211335    -0.75560
O272        O  0.01692013  0.22541224  0.24170325    -0.75750
C273        C  0.99375927  0.24575222  0.22969925     1.04870
O274        O  0.06191389  0.30610770  0.18564744    -0.83070
O275        O  0.07263851  0.34517095  0.24559114    -0.80130
C276        C  0.10483118  0.34222825  0.24992602     1.00410
O277        O  0.11847128  0.31633027  0.26451492    -0.80160
O278        O  0.13039844  0.25018952  0.28012531    -0.82770
C279        C  0.13993531  0.24082783  0.24755600     1.04880
O280        O  0.11800783  0.23745918  0.22142015    -0.75590
O281        O  0.05935146  0.24991335  0.17821041    -0.75730
C282        C  0.06364016  0.28020928  0.16485833     1.04840
Cr283      Cr  0.03934168  0.30724503  0.23442463     1.93740
Cr284      Cr  0.09206872  0.28356207  0.29315171     1.93210
Cr285      Cr  0.06753838  0.23292748  0.23232264     1.39100
O286        O  0.06614231  0.27443403  0.25317141    -1.20820
O287        O  0.26686261  0.22528788  0.22466240    -0.83070
O288        O  0.32795676  0.20829484  0.18393655    -0.80120
C289        C  0.32563658  0.21875561  0.14990884     1.00390
O290        O  0.31752470  0.24958211  0.14293341    -0.80150
O291        O  0.31178205  0.32251487  0.15300190    -0.82800
C292        C  0.28073448  0.33032269  0.16047526     1.04920
O293        O  0.26465145  0.31299767  0.18454315    -0.75560
O294        O  0.25130369  0.27552415  0.24824628    -0.75750
C295        C  0.24371207  0.24562483  0.23668239     1.04870
O296        O  0.30936096  0.24939297  0.28826981    -0.83070
O297        O  0.36799462  0.23714065  0.24487213    -0.80130
C298        C  0.38990137  0.24062483  0.21873239     1.00410
O299        O  0.38027724  0.25001825  0.18620864    -0.80160
O300        O  0.36855287  0.31605000  0.20252857    -0.82770
C301        C  0.35497392  0.34187169  0.21734078     1.04880
O302        O  0.32277653  0.34494931  0.22152028    -0.75590
O303        O  0.31179926  0.30563018  0.28116665    -0.75730
C304        C  0.31348749  0.27964307  0.30182006     1.04840
Cr305      Cr  0.31748169  0.23270948  0.23400100     1.93740
Cr306      Cr  0.34205769  0.28363763  0.17354012     1.93210
Cr307      Cr  0.28934431  0.30708976  0.23234831     1.39100
O308        O  0.31609250  0.27432492  0.21342492    -1.20820
O309        O  0.41494695  0.13352445  0.97497126    -0.83070
O310        O  0.43248294  0.19473798  0.93423177    -0.80120
C311        C  0.42250064  0.19217201  0.90006714     1.00390
O312        O  0.39191397  0.18345376  0.89272524    -0.80150
O313        O  0.31896836  0.17679161  0.90153473    -0.82800
C314        C  0.31124870  0.14581301  0.90958601     1.04920
O315        O  0.32835845  0.13029686  0.93423453    -0.75560
O316        O  0.36476857  0.11828819  0.99891698    -0.75750
C317        C  0.39458384  0.11048317  0.98733102     1.04870
O318        O  0.38999731  0.17631539  0.03796492    -0.83070
O319        O  0.40265741  0.23478888  0.99430066    -0.80130
C320        C  0.39927098  0.25652648  0.96796528     1.00410
O321        O  0.39012665  0.24668858  0.93539599    -0.80160
O322        O  0.32386723  0.23437626  0.95014909    -0.82770
C323        C  0.29786031  0.22067743  0.96448872     1.04880
O324        O  0.29514595  0.18853147  0.96939537    -0.75590
O325        O  0.33388054  0.17914951  0.03003705    -0.75730
C326        C  0.35963332  0.18074654  0.05107660     1.04840
Cr327      Cr  0.40738239  0.18423765  0.98390713     1.93740
Cr328      Cr  0.35712678  0.20790441  0.92235443     1.93210
Cr329      Cr  0.33319659  0.15578745  0.98165122     1.39100
O330        O  0.36602601  0.18252729  0.96278058    -1.20820
O331        O  0.36450443  0.36824756  0.96769918    -0.83070
O332        O  0.32825468  0.38028410  0.03248225    -0.80120
C333        C  0.31120351  0.39580457  0.05717688     1.00390
O334        O  0.31903000  0.42674660  0.06527664    -0.80150
O335        O  0.39206384  0.43338671  0.07367084    -0.82800
C336        C  0.42259975  0.44217213  0.06617364     1.04920
O337        O  0.43243072  0.44476604  0.03197285    -0.75560
O338        O  0.41476364  0.38354539  0.99140703    -0.75750
C339        C  0.39438021  0.36048280  0.97914695     1.04870
O340        O  0.33350572  0.42910349  0.93661925    -0.83070
O341        O  0.29495231  0.43851681  0.99744960    -0.80130
C342        C  0.29763242  0.47064372  0.00254530     1.00410
O343        O  0.32370995  0.48433883  0.01673710    -0.80160
O344        O  0.39005085  0.99667505  0.03105503    -0.82770
C345        C  0.39912299  0.00650691  0.99845292     1.04880
O346        O  0.40236604  0.98477516  0.97208626    -0.75590
O347        O  0.38959715  0.42624750  0.92851173    -0.75730
C348        C  0.35920712  0.43067556  0.91549519     1.04840
Cr349      Cr  0.33296430  0.40576309  0.98504030     1.93740
Cr350      Cr  0.35712362  0.45785819  0.04427606     1.93210
Cr351      Cr  0.40713970  0.43422979  0.98246720     1.39100
O352        O  0.36585314  0.43251352  0.00377565    -1.20820
C353        C  0.40475088  0.04307409  0.99178138    -0.11000
C354        C  0.40412921  0.07430998  0.98864284    -0.12550
C355        C  0.40400283  0.32433547  0.97778580    -0.11000
C356        C  0.40476700  0.29310638  0.97464338    -0.12550
C357        C  0.33960235  0.19849113  0.11924645    -0.11000
C358        C  0.35253587  0.18813257  0.09023238    -0.12550
C359        C  0.17639486  0.23512564  0.24067817    -0.11000
C360        C  0.20760810  0.23588565  0.23764919    -0.12550
C361        C  0.42641826  0.23508425  0.22557048    -0.11000
C362        C  0.45764121  0.23597163  0.22862966    -0.12550
C363        C  0.45776261  0.48609180  0.73753223    -0.11000
C364        C  0.42656636  0.48513429  0.74080672    -0.12550
C365        C  0.17657841  0.48504828  0.72528639    -0.11000
C366        C  0.20777359  0.48600482  0.72850772    -0.12550
C367        C  0.33929882  0.44848120  0.84728999    -0.11000
C368        C  0.35206917  0.43805668  0.87635356    -0.12550
C369        C  0.10228742  0.43791418  0.58971989    -0.11000
C370        C  0.08948016  0.44843248  0.61873331    -0.12550
C371        C  0.10398273  0.18766825  0.37530991    -0.11000
C372        C  0.09068648  0.19814687  0.34653803    -0.12550
C373        C  0.15477036  0.07432963  0.47821536    -0.11000
C374        C  0.15537223  0.04312343  0.47493487    -0.12550
C375        C  0.15529379  0.29329515  0.49054665    -0.11000
C376        C  0.15423814  0.32450563  0.48746471    -0.12550
C377        C  0.07148325  0.03681402  0.84032541    -0.11000
C378        C  0.08219271  0.04976152  0.86919233    -0.12550
C379        C  0.27772890  0.13198776  0.89953258    -0.11000
C380        C  0.24813482  0.12142195  0.89963162    -0.12550
C381        C  0.27096103  0.49235710  0.99199121    -0.11000
C382        C  0.25073211  0.01293578  0.98172243    -0.12550
C383        C  0.11846592  0.46366855  0.97639733    -0.11000
C384        C  0.11948974  0.43248074  0.97949179    -0.12550
C385        C  0.11942003  0.18251460  0.98669414    -0.11000
C386        C  0.11846781  0.21370601  0.98984324    -0.12550
C387        C  0.08189550  0.29999894  0.09681924    -0.11000
C388        C  0.07122439  0.28709207  0.12571654    -0.12550
C389        C  0.25103109  0.26296917  0.98555901    -0.11000
C390        C  0.27128834  0.24239417  0.97534465    -0.12550
C391        C  0.24798585  0.37158203  0.06694624    -0.11000
C392        C  0.27761136  0.38208338  0.06717791    -0.12550
C393        C  0.45314325  0.21966109  0.84064959    -0.11000
C394        C  0.44284030  0.20656480  0.86963453    -0.12550
C395        C  0.00768559  0.14384807  0.64946152    -0.11000
C396        C  0.01817665  0.11424815  0.64945437    -0.12550
C397        C  0.37728601  0.11789700  0.73697691    -0.11000
C398        C  0.39784807  0.13827583  0.72694645    -0.12550
C399        C  0.20268203  0.21935855  0.62605431    -0.11000
C400        C  0.19214596  0.20648303  0.59706546    -0.12550
C401        C  0.06649181  0.27098612  0.73809494    -0.11000
C402        C  0.09770891  0.27171383  0.74118149    -0.12550
C403        C  0.34770924  0.27172718  0.72508650    -0.11000
C404        C  0.31648082  0.27095706  0.72822190    -0.12550
C405        C  0.18372637  0.30940397  0.84658452    -0.11000
C406        C  0.17053021  0.31988195  0.87542606    -0.12550
C407        C  0.25759245  0.14389317  0.81679708    -0.11000
C408        C  0.26799741  0.11425840  0.81646884    -0.12550
C409        C  0.14795274  0.13807874  0.73984336    -0.11000
C410        C  0.12742721  0.11775039  0.72955870    -0.12550
C411        C  0.32147066  0.03676939  0.62561838    -0.11000
C412        C  0.33211859  0.04977169  0.59674745    -0.12550
C413        C  0.49736068  0.12307020  0.56629099    -0.11000
C414        C  0.02687429  0.13383983  0.56622372    -0.12550
C415        C  0.02155529  0.49309603  0.47508750    -0.11000
C416        C  0.50134562  0.01365297  0.48543588    -0.12550
C417        C  0.42208871  0.31940687  0.59013371    -0.11000
C418        C  0.43487357  0.30911544  0.61927234    -0.12550
C419        C  0.36913251  0.46353450  0.49031811    -0.11000
C420        C  0.37015144  0.43231791  0.48735689    -0.12550
C421        C  0.36906230  0.21370566  0.47527141    -0.11000
C422        C  0.36962245  0.18249095  0.47846463    -0.12550
C423        C  0.33128429  0.29959415  0.36991708    -0.11000
C424        C  0.32082334  0.28643418  0.34105075    -0.12550
C425        C  0.02325520  0.24333499  0.48528919    -0.11000
C426        C  0.50302887  0.26390200  0.47502832    -0.12550
C427        C  0.02700318  0.38359937  0.39884970    -0.11000
C428        C  0.49728860  0.37331200  0.39890378    -0.12550
C429        C  0.20343683  0.47025160  0.34072987    -0.11000
C430        C  0.19305789  0.45706611  0.36961141    -0.12550
C431        C  0.18330705  0.05914883  0.11963906    -0.11000
C432        C  0.17013988  0.06971996  0.09082860    -0.12550
C433        C  0.26721098  0.36392198  0.15023152    -0.10840
C434        C  0.25665704  0.39351256  0.14994745    -0.12550
C435        C  0.14729062  0.38887381  0.22844443    -0.11000
C436        C  0.12666406  0.36852881  0.23843128    -0.12550
C437        C  0.44302087  0.45666979  0.09645463    -0.11000
C438        C  0.45337283  0.46985410  0.12535640    -0.12550
C439        C  0.31632108  0.02125326  0.23734373    -0.11000
C440        C  0.34754428  0.02196496  0.24037548    -0.12550
C441        C  0.06628279  0.02123521  0.22871496    -0.11000
C442        C  0.09750451  0.02206622  0.22576960    -0.12550
C443        C  0.43348324  0.05910051  0.34630751    -0.11000
C444        C  0.42034826  0.06948851  0.37520467    -0.12550
C445        C  0.01726812  0.36384649  0.31616503    -0.11000
C446        C  0.00686807  0.39349676  0.31613887    -0.12550
C447        C  0.39753854  0.38837949  0.23883842    -0.11000
C448        C  0.37687313  0.36799741  0.22908398    -0.12550
O449        O  0.52261267  0.98155610  0.21801989    -0.83070
O450        O  0.50946345  0.94452130  0.28205317    -0.80120
C451        C  0.49346513  0.92722032  0.30620171     1.00390
O452        O  0.46245655  0.93507197  0.31382207    -0.80150
O453        O  0.45631612  0.00810198  0.32317922    -0.82800
C454        C  0.44790961  0.53879285  0.31592302     1.04920
O455        O  0.44566211  0.54898350  0.28180451    -0.75560
O456        O  0.50698262  0.53178872  0.24152222    -0.75750
C457        C  0.03017876  0.51146377  0.22958685     1.04870
O458        O  0.46214941  0.95099214  0.18544731    -0.83070
O459        O  0.45148895  0.91197801  0.24548509    -0.80130
C460        C  0.41930686  0.91483892  0.24995897     1.00410
O461        O  0.40561597  0.94078120  0.26439435    -0.80160
O462        O  0.39357668  0.00694170  0.27983463    -0.82770
C463        C  0.38401986  0.51625453  0.24724815     1.04880
O464        O  0.40594498  0.51959670  0.22109891    -0.75590
O465        O  0.46472833  0.50717397  0.17792669    -0.75730
C466        C  0.46056963  0.47684907  0.16458221     1.04840
Cr467      Cr  0.48470733  0.94993916  0.23424109     1.93740
Cr468      Cr  0.43196619  0.97363552  0.29293392     1.93210
Cr469      Cr  0.45640891  0.52420993  0.23203633     1.39100
O470        O  0.45785374  0.98272877  0.25293010    -1.20820
O471        O  0.25702219  0.53188330  0.22442296    -0.83070
O472        O  0.19565551  0.54904730  0.18410715    -0.80120
C473        C  0.19773787  0.53878346  0.14999717     1.00390
O474        O  0.20601102  0.00804027  0.14275873    -0.80150
O475        O  0.21215479  0.93499915  0.15241957    -0.82800
C476        C  0.24320358  0.92720364  0.15991670     1.04920
O477        O  0.25925650  0.94454134  0.18399181    -0.75560
O478        O  0.27259872  0.98163820  0.24793769    -0.75750
C479        C  0.28019608  0.51153908  0.23639213     1.04870
O480        O  0.21475759  0.50746548  0.28807693    -0.83070
O481        O  0.15594674  0.51985888  0.24495494    -0.80130
C482        C  0.13397570  0.51643533  0.21886287     1.00410
O483        O  0.14347571  0.00706454  0.18628826    -0.80160
O484        O  0.15542761  0.94096350  0.20207484    -0.82770
C485        C  0.16910102  0.91510616  0.21671239     1.04880
O486        O  0.20131031  0.91213327  0.22084623    -0.75590
O487        O  0.21217782  0.95126384  0.28070346    -0.75730
C488        C  0.21061720  0.47716913  0.30149721     1.04840
Cr489      Cr  0.20641718  0.52438606  0.23393740     1.93740
Cr490      Cr  0.18175687  0.97366526  0.17325238     1.93210
Cr491      Cr  0.23461692  0.95007242  0.23186232     1.39100
O492        O  0.20777721  0.98286007  0.21314181    -1.20820
O493        O  0.35954209  0.87304390  0.47444840    -0.83070
O494        O  0.34190031  0.81171380  0.43434444    -0.80120
C495        C  0.35176276  0.81412167  0.40013348     1.00390
O496        O  0.38234075  0.82275652  0.39260436    -0.80150
O497        O  0.45546468  0.82903796  0.40104976    -0.82800
C498        C  0.46351832  0.85996977  0.40889241     1.04920
O499        O  0.44644943  0.87583393  0.43331758    -0.75560
O500        O  0.40988826  0.88865830  0.49773936    -0.75750
C501        C  0.37993627  0.89623346  0.48634273     1.04870
O502        O  0.38460621  0.83081628  0.53777083    -0.83070
O503        O  0.37183802  0.77204565  0.49462058    -0.80130
C504        C  0.37491237  0.75017405  0.46838386     1.00410
O505        O  0.38401647  0.75978008  0.43571831    -0.80160
O506        O  0.45038244  0.77194511  0.45010347    -0.82770
C507        C  0.47646201  0.78563907  0.46429786     1.04880
O508        O  0.47927003  0.81778522  0.46918425    -0.75590
O509        O  0.44070698  0.82805396  0.52979969    -0.75730
C510        C  0.41498284  0.82655891  0.55089493     1.04840
Cr511      Cr  0.36714810  0.82249117  0.48382292     1.93740
Cr512      Cr  0.41714255  0.79834458  0.42226066     1.93210
Cr513      Cr  0.44140081  0.85085485  0.48105051     1.39100
O514        O  0.40846019  0.82402270  0.46253081    -1.20820
O515        O  0.40927529  0.63889891  0.46813645    -0.83070
O516        O  0.44650159  0.62545454  0.53197024    -0.80120
C517        C  0.46386483  0.60936900  0.55597423     1.00390
O518        O  0.45625572  0.57821010  0.56320550    -0.80150
O519        O  0.38335603  0.57200875  0.57336854    -0.82800
C520        C  0.35251996  0.56392695  0.56625500     1.04920
O521        O  0.34209172  0.56186060  0.53219042    -0.75560
O522        O  0.35901036  0.62316414  0.49155231    -0.75750
C523        C  0.37934383  0.64639178  0.47956995     1.04870
O524        O  0.43948337  0.57866493  0.43509199    -0.83070
O525        O  0.47871238  0.56765256  0.49472520    -0.80130
C526        C  0.47554921  0.53539746  0.49824724     1.00410
O527        O  0.44988338  0.52163885  0.51324566    -0.80160
O528        O  0.38393164  0.00959764  0.52977689    -0.82770
C529        C  0.37454553  0.00005047  0.49723791     1.04880
O530        O  0.37099203  0.52202557  0.47118126    -0.75590
O531        O  0.38324069  0.58075737  0.42794250    -0.75730
C532        C  0.41351499  0.57681063  0.41442316     1.04840
Cr533      Cr  0.44081214  0.60094533  0.48401481     1.93740
Cr534      Cr  0.41747661  0.54785173  0.54253594     1.93210
Cr535      Cr  0.36650589  0.57252388  0.48216922     1.39100
O536        O  0.40808392  0.57399441  0.50279676    -1.20820
O537        O  0.27261946  0.73136041  0.71801431    -0.83070
O538        O  0.25990354  0.69475300  0.78247308    -0.80120
C539        C  0.24409229  0.67755349  0.80685844     1.00390
O540        O  0.21309944  0.68533813  0.81464036    -0.80150
O541        O  0.20669204  0.75834874  0.82367358    -0.82800
C542        C  0.19821406  0.78899316  0.81628417     1.04920
O543        O  0.19595847  0.79903884  0.78211691    -0.75560
O544        O  0.25723581  0.78161938  0.74160131    -0.75750
C545        C  0.28033368  0.76126443  0.72946301     1.04870
O546        O  0.21193942  0.70060052  0.68615684    -0.83070
O547        O  0.20185191  0.66178908  0.74655039    -0.80130
C548        C  0.16967642  0.66457064  0.75109074     1.00410
O549        O  0.15596950  0.69053332  0.76548215    -0.80160
O550        O  0.14383575  0.75679147  0.78056257    -0.82770
C551        C  0.13420372  0.76605617  0.74798522     1.04880
O552        O  0.15605999  0.76940027  0.72176824    -0.75590
O553        O  0.21460137  0.75675649  0.67838204    -0.75730
C554        C  0.21023308  0.72639936  0.66519905     1.04840
Cr555      Cr  0.23486004  0.69980264  0.73479235     1.93740
Cr556      Cr  0.18235875  0.72365650  0.79369400     1.93210
Cr557      Cr  0.20656232  0.77403766  0.73243895     1.39100
O558        O  0.20807088  0.73263549  0.75350771    -1.20820
O559        O  0.50727361  0.78164300  0.72481388    -0.83070
O560        O  0.44620402  0.79891506  0.68403144    -0.80120
C561        C  0.44870779  0.78870804  0.64992481     1.00390
O562        O  0.45696604  0.75796898  0.64276771    -0.80150
O563        O  0.46303279  0.68509189  0.65211878    -0.82800
C564        C  0.49406029  0.67736056  0.65976920     1.04920
O565        O  0.50990943  0.69452440  0.68416265    -0.75560
O566        O  0.52268753  0.73139945  0.74843648    -0.75750
C567        C  0.03037018  0.76129382  0.73694217     1.04870
O568        O  0.46460684  0.75701295  0.78810111    -0.83070
O569        O  0.40607898  0.76954157  0.74456091    -0.80130
C570        C  0.38425182  0.76615551  0.71832175     1.00410
O571        O  0.39397215  0.75689768  0.68577107    -0.80160
O572        O  0.40594210  0.69067961  0.70129326    -0.82770
C573        C  0.41960833  0.66472676  0.71574888     1.04880
O574        O  0.45178152  0.66187430  0.72027382    -0.75590
O575        O  0.46205499  0.70082537  0.78052436    -0.75730
C576        C  0.46040681  0.72667341  0.80141567     1.04840
Cr577      Cr  0.45661417  0.77411481  0.73392946     1.93740
Cr578      Cr  0.43242150  0.72356769  0.67289286     1.93210
Cr579      Cr  0.48488671  0.69983501  0.73184737     1.39100
O580        O  0.45813169  0.73264290  0.71303622    -1.20820
O581        O  0.15957005  0.88918356  0.96934668    -0.83070
O582        O  0.19697023  0.87481607  0.03284531    -0.80120
C583        C  0.21428484  0.85834426  0.05658119     1.00390
O584        O  0.20635466  0.82722008  0.06351688    -0.80150
O585        O  0.13333406  0.82173673  0.07351469    -0.82800
C586        C  0.10243552  0.81393234  0.06634716     1.04920
O587        O  0.09202281  0.81192784  0.03226778    -0.75560
O588        O  0.10905532  0.87314000  0.99193281    -0.75750
C589        C  0.12946296  0.89647643  0.98043891     1.04870
O590        O  0.18955374  0.82917078  0.93534170    -0.83070
O591        O  0.22860985  0.81708855  0.99479994    -0.80130
C592        C  0.22526140  0.78482751  0.99824225     1.00410
O593        O  0.19948724  0.77115258  0.01313018    -0.80160
O594        O  0.13340492  0.75950444  0.02960872    -0.82770
C595        C  0.12410112  0.75013277  0.99698486     1.04880
O596        O  0.12085239  0.77221314  0.97101399    -0.75590
O597        O  0.13331476  0.83102430  0.92813353    -0.75730
C598        C  0.16361659  0.82723662  0.91464340     1.04840
Cr599      Cr  0.19096701  0.85084861  0.98458795     1.93740
Cr600      Cr  0.16726644  0.79742487  0.04258818     1.93210
Cr601      Cr  0.11651698  0.82262572  0.98230133     1.39100
O602        O  0.15808058  0.82387943  0.00303321    -1.20820
O603        O  0.10899309  0.62315436  0.97418558    -0.83070
O604        O  0.09211782  0.56190204  0.93374198    -0.80120
C605        C  0.10266479  0.56376841  0.89969621     1.00390
O606        O  0.13360553  0.57150472  0.89262741    -0.80150
O607        O  0.20658207  0.57701124  0.90303450    -0.82800
C608        C  0.21442817  0.60817066  0.90988072     1.04920
O609        O  0.19700276  0.62469343  0.93347493    -0.75560
O610        O  0.15947623  0.63921707  0.99683793    -0.75750
C611        C  0.12938087  0.64649987  0.98571974     1.04870
O612        O  0.13305125  0.58098069  0.03805340    -0.83070
O613        O  0.12069783  0.52219923  0.99516880    -0.80130
C614        C  0.12405420  0.00008921  0.96924561     1.00410
O615        O  0.13346052  0.00942431  0.93665691    -0.80160
O616        O  0.19943787  0.52107538  0.95359287    -0.82770
C617        C  0.22512092  0.53477690  0.96863731     1.04880
O618        O  0.22853434  0.56705104  0.97182330    -0.75590
O619        O  0.18932333  0.57928239  0.03105624    -0.75730
C620        C  0.16332147  0.57722274  0.05163724     1.04840
Cr621      Cr  0.11642019  0.57261330  0.98382654     1.93740
Cr622      Cr  0.16739677  0.54728385  0.92382511     1.93210
Cr623      Cr  0.19087836  0.60084780  0.98177704     1.39100
O624        O  0.15804726  0.57384402  0.96326051    -1.20820
O625        O  0.11504029  0.61790427  0.46817034    -0.83070
O626        O  0.07779021  0.63140900  0.53198201    -0.80120
C627        C  0.06038628  0.64752438  0.55592627     1.00390
O628        O  0.06799951  0.67868619  0.56313278    -0.80150
O629        O  0.14086924  0.68464365  0.57344134    -0.82800
C630        C  0.17175251  0.69260029  0.56642247     1.04920
O631        O  0.18225218  0.69476407  0.53237953    -0.75560
O632        O  0.16536884  0.63362704  0.49144516    -0.75750
C633        C  0.14501573  0.61041567  0.47946697     1.04870
O634        O  0.08491539  0.67816203  0.43512359    -0.83070
O635        O  0.04572567  0.68928923  0.49468755    -0.80130
C636        C  0.04897673  0.72154314  0.49815575     1.00410
O637        O  0.07464190  0.73525493  0.51320607    -0.80160
O638        O  0.14057520  0.74715179  0.52997959    -0.82770
C639        C  0.14993181  0.75676052  0.49745335     1.04880
O640        O  0.15346926  0.73481906  0.47136899    -0.75590
O641        O  0.14116924  0.67625132  0.42796959    -0.75730
C642        C  0.11087854  0.68017163  0.41447457     1.04840
Cr643      Cr  0.08355544  0.65590395  0.48403000     1.93740
Cr644      Cr  0.10690138  0.70895122  0.54257519     1.93210
Cr645      Cr  0.15789633  0.68429584  0.48224284     1.39100
O646        O  0.11630591  0.68281570  0.50283412    -1.20820
O647        O  0.16484305  0.88374839  0.47432430    -0.83070
O648        O  0.18249598  0.94499333  0.43404869    -0.80120
C649        C  0.17259688  0.94257529  0.39985011     1.00390
O650        O  0.14199662  0.93399618  0.39234972    -0.80150
O651        O  0.06886620  0.92784358  0.40086209    -0.82800
C652        C  0.06081687  0.89691094  0.40870782     1.04920
O653        O  0.07793744  0.88103773  0.43307822    -0.75560
O654        O  0.11444764  0.86818754  0.49753307    -0.75750
C655        C  0.14443234  0.86058833  0.48625805     1.04870
O656        O  0.13979224  0.92615644  0.53750423    -0.83070
O657        O  0.15262887  0.48479422  0.49428583    -0.80130
C658        C  0.14955836  0.50665028  0.46804090     1.00410
O659        O  0.14046327  0.49702093  0.43538188    -0.80160
O660        O  0.07409736  0.98496212  0.44989693    -0.82770
C661        C  0.04802843  0.97130827  0.46416284     1.04880
O662        O  0.04515287  0.93915237  0.46894880    -0.75590
O663        O  0.08368618  0.92884732  0.52950337    -0.75730
C664        C  0.10940988  0.93047932  0.55057614     1.04840
Cr665      Cr  0.15726523  0.93433447  0.48356115     1.93740
Cr666      Cr  0.10726163  0.95849281  0.42200738     1.93210
Cr667      Cr  0.08298490  0.90602109  0.48080193     1.39100
O668        O  0.11594866  0.93281628  0.46227705    -1.20820
O669        O  0.25138888  0.52589664  0.71854616    -0.83070
O670        O  0.26508684  0.56327109  0.78228134    -0.80120
C671        C  0.28131943  0.58058649  0.80624369     1.00390
O672        O  0.31236723  0.57270784  0.81357086    -0.80150
O673        O  0.31778310  0.49978503  0.82361302    -0.82800
C674        C  0.32563910  0.96889902  0.81660112     1.04920
O675        O  0.32794215  0.95843915  0.78256494    -0.75560
O676        O  0.26699688  0.97548930  0.74166503    -0.75750
C677        C  0.24384056  0.99587252  0.72976195     1.04870
O678        O  0.31185060  0.55591829  0.68542074    -0.83070
O679        O  0.32317189  0.59507609  0.74506722    -0.80130
C680        C  0.35538271  0.59188435  0.74903009     1.00410
O681        O  0.36894718  0.56605082  0.76385606    -0.80160
O682        O  0.38047772  0.49994812  0.78030306    -0.82770
C683        C  0.39006830  0.99063421  0.74775056     1.04880
O684        O  0.36814103  0.98724713  0.72163615    -0.75590
O685        O  0.30968575  0.99967093  0.67824368    -0.75730
C686        C  0.31379747  0.52994786  0.66476788     1.04840
Cr687      Cr  0.28957583  0.55733914  0.73434622     1.93740
Cr688      Cr  0.34240914  0.53372586  0.79295815     1.93210
Cr689      Cr  0.31763522  0.98290132  0.73248347     1.39100
O690        O  0.31631571  0.52449289  0.75313263    -1.20820
O691        O  0.01698682  0.97554887  0.72430383    -0.83070
O692        O  0.07797186  0.95844783  0.68342563    -0.80120
C693        C  0.07578281  0.96890567  0.64937724     1.00390
O694        O  0.06799568  0.49980845  0.64233228    -0.80150
O695        O  0.06257742  0.57274313  0.65241241    -0.82800
C696        C  0.03150382  0.58058208  0.65965199     1.04920
O697        O  0.01524182  0.56325551  0.68357789    -0.75560
O698        O  0.00140190  0.52599124  0.74734710    -0.75750
C699        C  0.99383888  0.99595103  0.73619918     1.04870
O700        O  0.05967865  0.99972125  0.78771948    -0.83070
O701        O  0.11814265  0.98721524  0.74440031    -0.80130
C702        C  0.14010099  0.99058825  0.71831682     1.00410
O703        O  0.13056616  0.49993236  0.68576241    -0.80160
O704        O  0.11908100  0.56604479  0.70227367    -0.82770
C705        C  0.10551317  0.59185328  0.71715738     1.04880
O706        O  0.07328563  0.59510178  0.72091620    -0.75590
O707        O  0.06182864  0.55597370  0.78054137    -0.75730
C708        C  0.06378333  0.53000110  0.80118920     1.04840
Cr709      Cr  0.06764159  0.98292492  0.73349933     1.93740
Cr710      Cr  0.09256375  0.53374430  0.67307087     1.93210
Cr711      Cr  0.03963929  0.55738163  0.73157383     1.39100
O712        O  0.06638759  0.52451356  0.71284341    -1.20820
O713        O  0.00136877  0.77568053  0.21822550    -0.83070
O714        O  0.01460345  0.81274600  0.28223030    -0.80120
C715        C  0.03062894  0.83008142  0.30632725     1.00390
O716        O  0.06162965  0.82220521  0.31396310    -0.80150
O717        O  0.06772023  0.74914016  0.32347628    -0.82800
C718        C  0.07609630  0.71843223  0.31622413     1.04920
O719        O  0.07822390  0.70819778  0.28211366    -0.75560
O720        O  0.01692026  0.72541190  0.24170326    -0.75750
C721        C  0.99375933  0.74575180  0.22969928     1.04870
O722        O  0.06191357  0.80610697  0.18564659    -0.83070
O723        O  0.07263867  0.84517061  0.24558974    -0.80130
C724        C  0.10483139  0.84222781  0.24992417     1.00410
O725        O  0.11847153  0.81633000  0.26451338    -0.80160
O726        O  0.13039865  0.75018947  0.28012494    -0.82770
C727        C  0.13993548  0.74082754  0.24755571     1.04880
O728        O  0.11800796  0.73745869  0.22141995    -0.75590
O729        O  0.05935160  0.74991253  0.17821009    -0.75730
C730        C  0.06364002  0.78020841  0.16485772     1.04840
Cr731      Cr  0.03934172  0.80724468  0.23442395     1.93740
Cr732      Cr  0.09206908  0.78356226  0.29315093     1.93210
Cr733      Cr  0.06753850  0.73292711  0.23232257     1.39100
O734        O  0.06614244  0.77443383  0.25317091    -1.20820
O735        O  0.26686280  0.72528776  0.22466242    -0.83070
O736        O  0.32795700  0.70829473  0.18393663    -0.80120
C737        C  0.32563685  0.71875548  0.14990890     1.00390
O738        O  0.31752484  0.74958195  0.14293349    -0.80150
O739        O  0.31178211  0.82251474  0.15300196    -0.82800
C740        C  0.28073458  0.83032265  0.16047545     1.04920
O741        O  0.26465154  0.81299757  0.18454328    -0.75560
O742        O  0.25130382  0.77552398  0.24824638    -0.75750
C743        C  0.24371222  0.74562468  0.23668240     1.04870
O744        O  0.30936107  0.74939290  0.28826995    -0.83070
O745        O  0.36799473  0.73714059  0.24487227    -0.80130
C746        C  0.38990148  0.74062473  0.21873252     1.00410
O747        O  0.38027738  0.75001820  0.18620877    -0.80160
O748        O  0.36855292  0.81604998  0.20252856    -0.82770
C749        C  0.35497395  0.84187171  0.21734064     1.04880
O750        O  0.32277657  0.84494923  0.22152037    -0.75590
O751        O  0.31179937  0.80563010  0.28116679    -0.75730
C752        C  0.31348759  0.77964300  0.30182023     1.04840
Cr753      Cr  0.31748184  0.73270939  0.23400110     1.93740
Cr754      Cr  0.34205779  0.78363753  0.17354019     1.93210
Cr755      Cr  0.28934441  0.80708965  0.23234843     1.39100
O756        O  0.31609263  0.77432483  0.21342502    -1.20820
O757        O  0.41494799  0.63352457  0.97497136    -0.83070
O758        O  0.43248381  0.69473846  0.93423196    -0.80120
C759        C  0.42250163  0.69217289  0.90006723     1.00390
O760        O  0.39191498  0.68345462  0.89272510    -0.80150
O761        O  0.31896928  0.67679177  0.90153471    -0.82800
C762        C  0.31124977  0.64581310  0.90958588     1.04920
O763        O  0.32835963  0.63029695  0.93423430    -0.75560
O764        O  0.36476958  0.61828810  0.99891683    -0.75750
C765        C  0.39458491  0.61048316  0.98733101     1.04870
O766        O  0.38999804  0.67631547  0.03796504    -0.83070
O767        O  0.40265799  0.73478908  0.99430093    -0.80130
C768        C  0.39927135  0.75652678  0.96796567     1.00410
O769        O  0.39012714  0.74668896  0.93539633    -0.80160
O770        O  0.32386781  0.73437625  0.95014948    -0.82770
C771        C  0.29786102  0.72067728  0.96448925     1.04880
O772        O  0.29514672  0.68853125  0.96939542    -0.75590
O773        O  0.33388127  0.67914923  0.03003707    -0.75730
C774        C  0.35963400  0.68074646  0.05107667     1.04840
Cr775      Cr  0.40738320  0.68423786  0.98390727     1.93740
Cr776      Cr  0.35712752  0.70790471  0.92235458     1.93210
Cr777      Cr  0.33319752  0.65578735  0.98165112     1.39100
O778        O  0.36602687  0.68252739  0.96278060    -1.20820
O779        O  0.36450344  0.86824756  0.96769975    -0.83070
O780        O  0.32825410  0.88028435  0.03248300    -0.80120
C781        C  0.31120288  0.89580485  0.05717754     1.00390
O782        O  0.31902912  0.92674699  0.06527701    -0.80150
O783        O  0.39206293  0.93338733  0.07367096    -0.82800
C784        C  0.42259880  0.94217277  0.06617357     1.04920
O785        O  0.43242965  0.94476653  0.03197272    -0.75560
O786        O  0.41476273  0.88354582  0.99140704    -0.75750
C787        C  0.39437937  0.86048305  0.97914728     1.04870
O788        O  0.33350420  0.92910317  0.93661962    -0.83070
O789        O  0.29495117  0.93851674  0.99745010    -0.80130
C790        C  0.29763129  0.97064374  0.00254519     1.00410
O791        O  0.32370872  0.98433898  0.01673709    -0.80160
O792        O  0.39005205  0.49667472  0.03105511    -0.82770
C793        C  0.39912427  0.50650667  0.99845303     1.04880
O794        O  0.40236748  0.48477492  0.97208637    -0.75590
O795        O  0.38959563  0.92624785  0.92851175    -0.75730
C796        C  0.35920548  0.93067572  0.91549542     1.04840
Cr797      Cr  0.33296323  0.90576305  0.98504083     1.93740
Cr798      Cr  0.35712254  0.95785857  0.04427617     1.93210
Cr799      Cr  0.40713847  0.93423015  0.98246715     1.39100
O800        O  0.36585202  0.93251376  0.00377584    -1.20820
C801        C  0.40475206  0.54307396  0.99178151    -0.11000
C802        C  0.40413036  0.57430990  0.98864290    -0.12550
C803        C  0.40400230  0.82433580  0.97778623    -0.11000
C804        C  0.40476692  0.79310672  0.97464392    -0.12550
C805        C  0.33960279  0.69849107  0.11924650    -0.11000
C806        C  0.35253642  0.68813254  0.09023245    -0.12550
C807        C  0.17639503  0.73512537  0.24067791    -0.11000
C808        C  0.20760827  0.73588546  0.23764905    -0.12550
C809        C  0.42641834  0.73508398  0.22557060    -0.11000
C810        C  0.45764128  0.73597125  0.22862977    -0.12550
C811        C  0.45775982  0.98609162  0.73753149    -0.11000
C812        C  0.42656359  0.98513406  0.74080611    -0.12550
C813        C  0.17657565  0.98504809  0.72528696    -0.11000
C814        C  0.20777081  0.98600465  0.72850837    -0.12550
C815        C  0.33929668  0.94848191  0.84729045    -0.11000
C816        C  0.35206722  0.93805721  0.87635389    -0.12550
C817        C  0.10228546  0.93791494  0.58971933    -0.11000
C818        C  0.08947805  0.94843337  0.61873266    -0.12550
C819        C  0.10398255  0.68766874  0.37531048    -0.11000
C820        C  0.09068642  0.69814743  0.34653853    -0.12550
C821        C  0.15477117  0.57432970  0.47821570    -0.11000
C822        C  0.15537311  0.54312344  0.47493527    -0.12550
C823        C  0.15529325  0.79329550  0.49054666    -0.11000
C824        C  0.15423724  0.82450595  0.48746468    -0.12550
C825        C  0.07148565  0.53681442  0.84032540    -0.11000
C826        C  0.08219458  0.54976187  0.86919252    -0.12550
C827        C  0.27772998  0.63198776  0.89953255    -0.11000
C828        C  0.24813596  0.62142179  0.89963189    -0.12550
C829        C  0.27096012  0.99235705  0.99199011    -0.11000
C830        C  0.25073283  0.51293588  0.98172419    -0.12550
C831        C  0.11846613  0.96366820  0.97639655    -0.11000
C832        C  0.11949039  0.93248041  0.97949109    -0.12550
C833        C  0.11942067  0.68251462  0.98669417    -0.11000
C834        C  0.11846838  0.71370598  0.98984322    -0.12550
C835        C  0.08189525  0.79999814  0.09681858    -0.11000
C836        C  0.07122420  0.78709106  0.12571583    -0.12550
C837        C  0.25103200  0.76296890  0.98556073    -0.11000
C838        C  0.27128918  0.74239394  0.97534598    -0.12550
C839        C  0.24798540  0.87158215  0.06694711    -0.11000
C840        C  0.27761085  0.88208356  0.06717866    -0.12550
C841        C  0.45314511  0.71966235  0.84065019    -0.11000
C842        C  0.44284153  0.70656595  0.86963486    -0.12550
C843        C  0.00768714  0.64384729  0.64946226    -0.11000
C844        C  0.01817825  0.61424738  0.64945470    -0.12550
C845        C  0.37728852  0.61789777  0.73698012    -0.11000
C846        C  0.39785057  0.63827673  0.72694992    -0.12550
C847        C  0.20268406  0.71935994  0.62605374    -0.11000
C848        C  0.19214738  0.70648426  0.59706521    -0.12550
C849        C  0.06649461  0.77098686  0.73809434    -0.11000
C850        C  0.09771170  0.77171457  0.74118083    -0.12550
C851        C  0.34771201  0.77172790  0.72508716    -0.11000
C852        C  0.31648361  0.77095776  0.72822247    -0.12550
C853        C  0.18372870  0.80940315  0.84658501    -0.11000
C854        C  0.17053236  0.81988112  0.87542649    -0.12550
C855        C  0.25759435  0.64389259  0.81679665    -0.11000
C856        C  0.26799929  0.61425781  0.81646880    -0.12550
C857        C  0.14795527  0.63807965  0.73983971    -0.11000
C858        C  0.12742976  0.61775117  0.72955532    -0.12550
C859        C  0.32147294  0.53676982  0.62561849    -0.11000
C860        C  0.33212038  0.54977206  0.59674736    -0.12550
C861        C  0.49736204  0.62306954  0.56629095    -0.11000
C862        C  0.02687544  0.63383943  0.56622423    -0.12550
C863        C  0.02155446  0.99309621  0.47508782    -0.11000
C864        C  0.50134611  0.51365284  0.48543412    -0.12550
C865        C  0.42209049  0.81940609  0.59013348    -0.11000
C866        C  0.43487564  0.80911462  0.61927199    -0.12550
C867        C  0.36913272  0.96353421  0.49031888    -0.11000
C868        C  0.37015207  0.93231764  0.48735755    -0.12550
C869        C  0.36906269  0.71370564  0.47527154    -0.11000
C870        C  0.36962299  0.68249098  0.47846475    -0.12550
C871        C  0.33128437  0.79959406  0.36991736    -0.11000
C872        C  0.32082342  0.78643414  0.34105097    -0.12550
C873        C  0.02325526  0.74333446  0.48528992    -0.11000
C874        C  0.50302900  0.76390135  0.47502885    -0.12550
C875        C  0.02700283  0.88359924  0.39884864    -0.11000
C876        C  0.49728837  0.87331176  0.39890279    -0.12550
C877        C  0.20343602  0.97025160  0.34072953    -0.11000
C878        C  0.19305708  0.95706618  0.36961114    -0.12550
C879        C  0.18330712  0.55914878  0.11963965    -0.11000
C880        C  0.17013998  0.56972017  0.09082931    -0.12550
C881        C  0.26721123  0.86392208  0.15023199    -0.10840
C882        C  0.25665744  0.89351272  0.14994785    -0.12550
C883        C  0.14729073  0.88887327  0.22844218    -0.11000
C884        C  0.12666422  0.86852816  0.23842883    -0.12550
C885        C  0.44302000  0.95667063  0.09645441    -0.11000
C886        C  0.45337205  0.96985502  0.12535611    -0.12550
C887        C  0.31632145  0.52125311  0.23734343    -0.11000
C888        C  0.34754465  0.52196476  0.24037515    -0.12550
C889        C  0.06628308  0.52123486  0.22871578    -0.11000
C890        C  0.09750480  0.52206607  0.22577056    -0.12550
C891        C  0.43348334  0.55910087  0.34630695    -0.11000
C892        C  0.42034835  0.56948907  0.37520400    -0.12550
C893        C  0.01726864  0.86384690  0.31616402    -0.11000
C894        C  0.00686851  0.89349714  0.31613794    -0.12550
C895        C  0.39753846  0.88837983  0.23883760    -0.11000
C896        C  0.37687310  0.86799763  0.22908337    -0.12550
O897        O  0.02261311  0.48155555  0.21802059    -0.83070
O898        O  0.00946346  0.44452094  0.28205386    -0.80120
C899        C  0.99346500  0.42722007  0.30620237     1.00390
O900        O  0.96245640  0.43507183  0.31382253    -0.80150
O901        O  0.95631616  0.50810197  0.32317925    -0.82800
C902        C  0.94790947  0.03879276  0.31592330     1.04920
O903        O  0.94566196  0.04898366  0.28180486    -0.75560
O904        O  0.00698242  0.03178912  0.24152206    -0.75750
C905        C  0.53017841  0.01146423  0.22958632     1.04870
O906        O  0.96214999  0.45099158  0.18544765    -0.83070
O907        O  0.95148904  0.41197767  0.24548550    -0.80130
C908        C  0.91930693  0.41483869  0.24995919     1.00410
O909        O  0.90561606  0.44078102  0.26439451    -0.80160
O910        O  0.89357689  0.50694163  0.27983442    -0.82770
C911        C  0.88401957  0.01625483  0.24724835     1.04880
O912        O  0.90594465  0.01959727  0.22109911    -0.75590
O913        O  0.96472781  0.00717473  0.17792656    -0.75730
C914        C  0.96056903  0.97684988  0.16458192     1.04840
Cr915      Cr  0.98470761  0.44993872  0.23424160     1.93740
Cr916      Cr  0.93196626  0.47363540  0.29293404     1.93210
Cr917      Cr  0.95640862  0.02421042  0.23203638     1.39100
O918        O  0.95785398  0.48272845  0.25293030    -1.20820
O919        O  0.75702190  0.03188346  0.22442282    -0.83070
O920        O  0.69565531  0.04904740  0.18410665    -0.80120
C921        C  0.69773781  0.03878350  0.14999669     1.00390
O922        O  0.70601059  0.50803973  0.14275905    -0.80150
O923        O  0.71215398  0.43499858  0.15242025    -0.82800
C924        C  0.74320289  0.42720310  0.15991678     1.04920
O925        O  0.75925617  0.44454079  0.18399161    -0.75560
O926        O  0.77259935  0.48163788  0.24793711    -0.75750
C927        C  0.78019574  0.01153930  0.23639222     1.04870
O928        O  0.71475702  0.00746569  0.28807668    -0.83070
O929        O  0.65594636  0.01985905  0.24495435    -0.80130
C930        C  0.63397540  0.01643545  0.21886220     1.00410
O931        O  0.64347577  0.50706457  0.18628907    -0.80160
O932        O  0.65542745  0.44096363  0.20207637    -0.82770
C933        C  0.66910087  0.41510644  0.21671424     1.04880
O934        O  0.70131022  0.41213323  0.22084721    -0.75590
O935        O  0.71217884  0.45126386  0.28070400    -0.75730
C936        C  0.71061656  0.97716935  0.30149700     1.04840
Cr937      Cr  0.70641684  0.02438622  0.23393703     1.93740
Cr938      Cr  0.68175658  0.47366499  0.17325320     1.93210
Cr939      Cr  0.73461723  0.45007222  0.23186250     1.39100
O940        O  0.70777739  0.48285990  0.21314225    -1.20820
O941        O  0.85954134  0.37304412  0.47444806    -0.83070
O942        O  0.84189994  0.31171387  0.43434423    -0.80120
C943        C  0.85176260  0.31412182  0.40013338     1.00390
O944        O  0.88234062  0.32275674  0.39260449    -0.80150
O945        O  0.95546456  0.32903835  0.40105049    -0.82800
C946        C  0.96351834  0.35997012  0.40889331     1.04920
O947        O  0.94644931  0.37583431  0.43331836    -0.75560
O948        O  0.90988727  0.38865856  0.49773963    -0.75750
C949        C  0.87993544  0.39623370  0.48634253     1.04870
O950        O  0.88460482  0.33081682  0.53777086    -0.83070
O951        O  0.87183723  0.27204583  0.49462067    -0.80130
C952        C  0.87491188  0.25017417  0.46838401     1.00410
O953        O  0.88401622  0.25978024  0.43571853    -0.80160
O954        O  0.95038202  0.27194554  0.45010413    -0.82770
C955        C  0.97646154  0.28563956  0.46429852     1.04880
O956        O  0.97926938  0.31778565  0.46918535    -0.75590
O957        O  0.94070565  0.32805428  0.52980037    -0.75730
C958        C  0.91498131  0.32655954  0.55089533     1.04840
Cr959      Cr  0.86714730  0.32249141  0.48382284     1.93740
Cr960      Cr  0.91714228  0.29834490  0.42226108     1.93210
Cr961      Cr  0.94140003  0.35085517  0.48105121     1.39100
O962        O  0.90845958  0.32402300  0.46253114    -1.20820
O963        O  0.90927438  0.13889851  0.46813638    -0.83070
O964        O  0.94650006  0.12545478  0.53197068    -0.80120
C965        C  0.96386334  0.10936956  0.55597487     1.00390
O966        O  0.95625421  0.07821074  0.56320665    -0.80150
O967        O  0.88335432  0.07200864  0.57336914    -0.82800
C968        C  0.85251839  0.06392650  0.56625523     1.04920
O969        O  0.84209052  0.06186022  0.53219051    -0.75560
O970        O  0.85900951  0.12316400  0.49155251    -0.75750
C971        C  0.87934301  0.14639159  0.47957001     1.04870
O972        O  0.93948294  0.07866424  0.43509289    -0.83070
O973        O  0.97871165  0.06765272  0.49472661    -0.80130
C974        C  0.97554868  0.03539763  0.49824893     1.00410
O975        O  0.94988282  0.02163901  0.51324731    -0.80160
O976        O  0.88393233  0.50959767  0.52977611    -0.82770
C977        C  0.87454589  0.50005065  0.49723720     1.04880
O978        O  0.87099158  0.02202528  0.47118185    -0.75590
O979        O  0.88324034  0.08075704  0.42794293    -0.75730
C980        C  0.91351471  0.07681008  0.41442382     1.04840
Cr981      Cr  0.94081125  0.10094516  0.48401548     1.93740
Cr982      Cr  0.91747551  0.04785188  0.54253696     1.93210
Cr983      Cr  0.86650514  0.07252361  0.48216958     1.39100
O984        O  0.90808301  0.07399428  0.50279746    -1.20820
O985        O  0.77261613  0.23136002  0.71801346    -0.83070
O986        O  0.75990146  0.19475391  0.78247321    -0.80120
C987        C  0.74409082  0.17755463  0.80685918     1.00390
O988        O  0.71309810  0.18533929  0.81464184    -0.80150
O989        O  0.70669028  0.25835000  0.82367348    -0.82800
C990        C  0.69821177  0.28899416  0.81628364     1.04920
O991        O  0.69595576  0.29903928  0.78211626    -0.75560
O992        O  0.75723317  0.28161895  0.74160097    -0.75750
C993        C  0.78033079  0.26126389  0.72946229     1.04870
O994        O  0.71193552  0.20059955  0.68615795    -0.83070
O995        O  0.70184942  0.16178877  0.74655259    -0.80130
C996        C  0.66967403  0.16457005  0.75109398     1.00410
O997        O  0.65596719  0.19053302  0.76548483    -0.80160
O998        O  0.64383331  0.25679148  0.78056321    -0.82770
C999        C  0.63420108  0.26605574  0.74798574     1.04880
O1000       O  0.65605720  0.26939966  0.72176855    -0.75590
O1001       O  0.71459869  0.25675536  0.67838227    -0.75730
C1002       C  0.71023002  0.22639815  0.66519969     1.04840
Cr1003     Cr  0.73485710  0.19980238  0.73479296     1.93740
Cr1004     Cr  0.68235672  0.22365704  0.79369516     1.93210
Cr1005     Cr  0.70655960  0.27403728  0.73243885     1.39100
O1006       O  0.70806819  0.23263540  0.75350822    -1.20820
O1007       O  0.00727085  0.28164243  0.72481407    -0.83070
O1008       O  0.94620125  0.29891531  0.68403199    -0.80120
C1009       C  0.94870568  0.28870901  0.64992521     1.00390
O1010       O  0.95696456  0.25797026  0.64276759    -0.80150
O1011       O  0.96303164  0.18509301  0.65211663    -0.82800
C1012       C  0.99405893  0.17736151  0.65976789     1.04920
O1013       O  0.00990751  0.19452506  0.68416198    -0.75560
O1014       O  0.02268433  0.23139883  0.74843683    -0.75750
C1015       C  0.53036741  0.26129343  0.73694235     1.04870
O1016       O  0.96460416  0.25701135  0.78810061    -0.83070
O1017       O  0.90607612  0.26954039  0.74456029    -0.80130
C1018       C  0.88424918  0.26615463  0.71832083     1.00410
O1019       O  0.89396981  0.25689744  0.68577000    -0.80160
O1020       O  0.90594000  0.19067896  0.70128974    -0.82770
C1021       C  0.91960618  0.16472575  0.71574462     1.04880
O1022       O  0.95177924  0.16187369  0.72027098    -0.75590
O1023       O  0.96205130  0.20082394  0.78052283    -0.75730
C1024       C  0.96040391  0.22667168  0.80141469     1.04840
Cr1025     Cr  0.95661138  0.27411408  0.73392935     1.93740
Cr1026     Cr  0.93241967  0.22356809  0.67289117     1.93210
Cr1027     Cr  0.98488393  0.19983445  0.73184625     1.39100
O1028       O  0.95812909  0.23264252  0.71303531    -1.20820
O1029       O  0.65956920  0.38918404  0.96934681    -0.83070
O1030       O  0.69697053  0.37481612  0.03284458    -0.80120
C1031       C  0.71428535  0.35834406  0.05658010     1.00390
O1032       O  0.70635514  0.32721984  0.06351557    -0.80150
O1033       O  0.63333464  0.32173668  0.07351468    -0.82800
C1034       C  0.60243591  0.31393267  0.06634757     1.04920
O1035       O  0.59202275  0.31192817  0.03226835    -0.75560
O1036       O  0.60905460  0.37314029  0.99193321    -0.75750
C1037       C  0.62946218  0.39647678  0.98043931     1.04870
O1038       O  0.68955220  0.32917158  0.93534070    -0.83070
O1039       O  0.72860911  0.31708877  0.99479809    -0.80130
C1040       C  0.72526057  0.28482773  0.99824014     1.00410
O1041       O  0.69948663  0.27115275  0.01312846    -0.80160
O1042       O  0.63340462  0.25950457  0.02960843    -0.82770
C1043       C  0.62410050  0.25013289  0.99698468     1.04880
O1044       O  0.62085141  0.27221336  0.97101394    -0.75590
O1045       O  0.63331310  0.33102477  0.92813349    -0.75730
C1046       C  0.66361476  0.32723741  0.91464284     1.04840
Cr1047     Cr  0.69096628  0.35084898  0.98458713     1.93740
Cr1048     Cr  0.66726645  0.29742490  0.04258735     1.93210
Cr1049     Cr  0.61651617  0.32262601  0.98230152     1.39100
O1050       O  0.65808005  0.32387972  0.00303276    -1.20820
O1051       O  0.60899231  0.12315423  0.97418529    -0.83070
O1052       O  0.59211668  0.06190175  0.93374177    -0.80120
C1053       C  0.60266329  0.06376807  0.89969585     1.00390
O1054       O  0.63360393  0.07150455  0.89262668    -0.80150
O1055       O  0.70658070  0.07701140  0.90303318    -0.82800
C1056       C  0.71442694  0.10817072  0.90987976     1.04920
O1057       O  0.69700153  0.12469336  0.93347406    -0.75560
O1058       O  0.65947556  0.13921680  0.99683744    -0.75750
C1059       C  0.62938017  0.14649973  0.98571941     1.04870
O1060       O  0.63305095  0.08098040  0.03805283    -0.83070
O1061       O  0.62069738  0.02219894  0.99516815    -0.80130
C1062       C  0.62405461  0.50008944  0.96924642     1.00410
O1063       O  0.63346134  0.50942437  0.93665781    -0.80160
O1064       O  0.69943714  0.02107528  0.95359126    -0.82770
C1065       C  0.72512020  0.03477675  0.96863573     1.04880
O1066       O  0.72853359  0.06705089  0.97182185    -0.75590
O1067       O  0.68932297  0.07928192  0.03105523    -0.75730
C1068       C  0.66332125  0.07722237  0.05163646     1.04840
Cr1069     Cr  0.61641951  0.07261306  0.98382608     1.93740
Cr1070     Cr  0.66739564  0.04728381  0.92382400     1.93210
Cr1071     Cr  0.69087760  0.10084756  0.98177608     1.39100
O1072       O  0.65804640  0.07384383  0.96325965    -1.20820
O1073       O  0.61503946  0.11790412  0.46817013    -0.83070
O1074       O  0.57778890  0.13140927  0.53198139    -0.80120
C1075       C  0.56038501  0.14752486  0.55592551     1.00390
O1076       O  0.56799831  0.17868668  0.56313176    -0.80150
O1077       O  0.64086787  0.18464312  0.57344081    -0.82800
C1078       C  0.67175127  0.19259946  0.56642235     1.04920
O1079       O  0.68225129  0.19476348  0.53237956    -0.75560
O1080       O  0.66536806  0.13362684  0.49144493    -0.75750
C1081       C  0.64501491  0.11041554  0.47946674     1.04870
O1082       O  0.58491519  0.17816183  0.43512282    -0.83070
O1083       O  0.54572523  0.18928969  0.49468638    -0.80130
C1084       C  0.54897658  0.22154358  0.49815452     1.00410
O1085       O  0.57464176  0.23525521  0.51320497    -0.80160
O1086       O  0.64057499  0.24715150  0.52997928    -0.82770
C1087       C  0.64993184  0.25676025  0.49745314     1.04880
O1088       O  0.65346915  0.23481882  0.47136873    -0.75590
O1089       O  0.64116910  0.17625110  0.42796924    -0.75730
C1090       C  0.61087848  0.18017129  0.41447400     1.04840
Cr1091     Cr  0.58355475  0.15590403  0.48402931     1.93740
Cr1092     Cr  0.60690065  0.20895123  0.54257446     1.93210
Cr1093     Cr  0.65789583  0.18429557  0.48224260     1.39100
O1094       O  0.61630526  0.18281563  0.50283353    -1.20820
O1095       O  0.66484411  0.38374816  0.47432439    -0.83070
O1096       O  0.68249702  0.44499324  0.43404893    -0.80120
C1097       C  0.67259789  0.44257517  0.39985039     1.00390
O1098       O  0.64199765  0.43399595  0.39235004    -0.80150
O1099       O  0.56886712  0.42784330  0.40086254    -0.82800
C1100       C  0.56081753  0.39691077  0.40870852     1.04920
O1101       O  0.57793812  0.38103752  0.43307889    -0.75560
O1102       O  0.61444878  0.36818743  0.49753350    -0.75750
C1103       C  0.64443338  0.36058813  0.48625823     1.04870
O1104       O  0.63979368  0.42615606  0.53750445    -0.83070
O1105       O  0.65262762  0.98479443  0.49428557    -0.80130
C1106       C  0.64955731  0.00665043  0.46804060     1.00410
O1107       O  0.64046226  0.99702114  0.43538156    -0.80160
O1108       O  0.57409841  0.48496189  0.44989718    -0.82770
C1109       C  0.54802940  0.47130806  0.46416293     1.04880
O1110       O  0.54515397  0.43915224  0.46894947    -0.75590
O1111       O  0.58368762  0.42884730  0.52950388    -0.75730
C1112       C  0.60941142  0.43047900  0.55057654     1.04840
Cr1113     Cr  0.65726640  0.43433428  0.48356137     1.93740
Cr1114     Cr  0.60726266  0.45849257  0.42200772     1.93210
Cr1115     Cr  0.58298600  0.40602099  0.48080249     1.39100
O1116       O  0.61594975  0.43281609  0.46227741    -1.20820
O1117       O  0.75138557  0.02589677  0.71854731    -0.83070
O1118       O  0.76508506  0.06327210  0.78228155    -0.80120
C1119       C  0.78131826  0.08058780  0.80624316     1.00390
O1120       O  0.81236627  0.07270930  0.81356943    -0.80150
O1121       O  0.81778169  0.99978661  0.82361330    -0.82800
C1122       C  0.82564148  0.46889866  0.81660081     1.04920
O1123       O  0.82794483  0.45843894  0.78256462    -0.75560
O1124       O  0.76699960  0.47548923  0.74166476    -0.75750
C1125       C  0.74384333  0.49587248  0.72976161     1.04870
O1126       O  0.81184661  0.05591772  0.68541983    -0.83070
O1127       O  0.82316962  0.09507599  0.74506520    -0.80130
C1128       C  0.85538055  0.09188372  0.74902647     1.00410
O1129       O  0.86894510  0.06605059  0.76385319    -0.80160
O1130       O  0.88047543  0.99994826  0.78030236    -0.82770
C1131       C  0.89007104  0.49063425  0.74775075     1.04880
O1132       O  0.86814387  0.48724722  0.72163620    -0.75590
O1133       O  0.80968844  0.49967101  0.67824364    -0.75730
C1134       C  0.81379428  0.02994707  0.66476742     1.04840
Cr1135     Cr  0.78957299  0.05733922  0.73434588     1.93740
Cr1136     Cr  0.84240738  0.03372663  0.79295701     1.93210
Cr1137     Cr  0.81763798  0.48290128  0.73248332     1.39100
O1138       O  0.81631312  0.02449309  0.75313224    -1.20820
O1139       O  0.51698945  0.47554887  0.72430433    -0.83070
O1140       O  0.57797442  0.45844739  0.68342623    -0.80120
C1141       C  0.57578497  0.46890500  0.64937781     1.00390
O1142       O  0.56799402  0.99980963  0.64233203    -0.80150
O1143       O  0.56257585  0.07274416  0.65241339    -0.82800
C1144       C  0.53150207  0.08058291  0.65965227     1.04920
O1145       O  0.51523968  0.06325618  0.68357773    -0.75560
O1146       O  0.50139877  0.02599137  0.74734636    -0.75750
C1147       C  0.49384170  0.49595108  0.73620006     1.04870
O1148       O  0.55968131  0.49972139  0.78771970    -0.83070
O1149       O  0.61814541  0.48721521  0.74440034    -0.80130
C1150       C  0.64010361  0.49058820  0.71831668     1.00410
O1151       O  0.63056377  0.99993262  0.68576304    -0.80160
O1152       O  0.61907866  0.06604479  0.70227576    -0.82770
C1153       C  0.60551073  0.09185300  0.71715996     1.04880
O1154       O  0.57328310  0.09510184  0.72091754    -0.75590
O1155       O  0.56182504  0.05597338  0.78054195    -0.75730
C1156       C  0.56378027  0.03000063  0.80118947     1.04840
Cr1157     Cr  0.56764427  0.48292481  0.73349968     1.93740
Cr1158     Cr  0.59256172  0.03374495  0.67307171     1.93210
Cr1159     Cr  0.53963643  0.05738174  0.73157404     1.39100
O1160       O  0.56638493  0.02451377  0.71284365    -1.20820
O1161       O  0.50136889  0.27568099  0.21822555    -0.83070
O1162       O  0.51460299  0.31274582  0.28223091    -0.80120
C1163       C  0.53062826  0.33008097  0.30632826     1.00390
O1164       O  0.56162885  0.32220457  0.31396448    -0.80150
O1165       O  0.56771956  0.24913939  0.32347640    -0.82800
C1166       C  0.57609599  0.21843164  0.31622389     1.04920
O1167       O  0.57822382  0.20819762  0.28211331    -0.75560
O1168       O  0.51692019  0.22541226  0.24170320    -0.75750
C1169       C  0.49375933  0.24575225  0.22969921     1.04870
O1170       O  0.56191401  0.30610785  0.18564760    -0.83070
O1171       O  0.57263844  0.34517100  0.24559145    -0.80130
C1172       C  0.60483110  0.34222837  0.24992656     1.00410
O1173       O  0.61847118  0.31633035  0.26451539    -0.80160
O1174       O  0.63039838  0.25018956  0.28012552    -0.82770
C1175       C  0.63993532  0.24082795  0.24755620     1.04880
O1176       O  0.61800789  0.23745934  0.22142029    -0.75590
O1177       O  0.55935157  0.24991352  0.17821045    -0.75730
C1178       C  0.56364030  0.28020947  0.16485844     1.04840
Cr1179     Cr  0.53934168  0.30724508  0.23442475     1.93740
Cr1180     Cr  0.59206858  0.28356202  0.29315194     1.93210
Cr1181     Cr  0.56753843  0.23292756  0.23232267     1.39100
O1182       O  0.56614229  0.27443407  0.25317153    -1.20820
O1183       O  0.76686259  0.22528792  0.22466256    -0.83070
O1184       O  0.82795673  0.20829472  0.18393672    -0.80120
C1185       C  0.82563646  0.21875542  0.14990899     1.00390
O1186       O  0.81752444  0.24958187  0.14293354    -0.80150
O1187       O  0.81178172  0.32251462  0.15300175    -0.82800
C1188       C  0.78073417  0.33032246  0.16047527     1.04920
O1189       O  0.76465126  0.31299752  0.18454333    -0.75560
O1190       O  0.75130382  0.27552415  0.24824664    -0.75750
C1191       C  0.74371211  0.24562488  0.23668267     1.04870
O1192       O  0.80936098  0.24939310  0.28826989    -0.83070
O1193       O  0.86799460  0.23714069  0.24487215    -0.80130
C1194       C  0.88990131  0.24062485  0.21873237     1.00410
O1195       O  0.88027715  0.25001822  0.18620860    -0.80160
O1196       O  0.86855275  0.31605005  0.20252817    -0.82770
C1197       C  0.85497383  0.34187180  0.21734027     1.04880
O1198       O  0.82277645  0.34494934  0.22152001    -0.75590
O1199       O  0.81179954  0.30563028  0.28116659    -0.75730
C1200       C  0.81348765  0.27964321  0.30182008     1.04840
Cr1201     Cr  0.81748168  0.23270949  0.23400111     1.93740
Cr1202     Cr  0.84205751  0.28363751  0.17354001     1.93210
Cr1203     Cr  0.78934435  0.30708976  0.23234837     1.39100
O1204       O  0.81609247  0.27432490  0.21342495    -1.20820
O1205       O  0.91494690  0.13352437  0.97497145    -0.83070
O1206       O  0.93248298  0.19473777  0.93423177    -0.80120
C1207       C  0.92250069  0.19217164  0.90006714     1.00390
O1208       O  0.89191401  0.18345339  0.89272531    -0.80150
O1209       O  0.81896844  0.17679135  0.90153473    -0.82800
C1210       C  0.81124876  0.14581278  0.90958611     1.04920
O1211       O  0.82835845  0.13029671  0.93423475    -0.75560
O1212       O  0.86476853  0.11828825  0.99891728    -0.75750
C1213       C  0.89458377  0.11048315  0.98733131     1.04870
O1214       O  0.88999728  0.17631544  0.03796499    -0.83070
O1215       O  0.90265745  0.23478886  0.99430057    -0.80130
C1216       C  0.89927104  0.25652640  0.96796513     1.00410
O1217       O  0.89012675  0.24668841  0.93539585    -0.80160
O1218       O  0.82386729  0.23437617  0.95014885    -0.82770
C1219       C  0.79786030  0.22067739  0.96448841     1.04880
O1220       O  0.79514596  0.18853146  0.96939528    -0.75590
O1221       O  0.83388052  0.17914970  0.03003708    -0.75730
C1222       C  0.85963328  0.18074663  0.05107666     1.04840
Cr1223     Cr  0.90738240  0.18423760  0.98390718     1.93740
Cr1224     Cr  0.85712685  0.20790421  0.92235436     1.93210
Cr1225     Cr  0.83319657  0.15578747  0.98165133     1.39100
O1226       O  0.86602602  0.18252722  0.96278062    -1.20820
O1227       O  0.86450451  0.36824755  0.96769914    -0.83070
O1228       O  0.82825478  0.38028409  0.03248224    -0.80120
C1229       C  0.81120359  0.39580455  0.05717686     1.00390
O1230       O  0.81903002  0.42674660  0.06527658    -0.80150
O1231       O  0.89206386  0.43338679  0.07367087    -0.82800
C1232       C  0.92259977  0.44217219  0.06617366     1.04920
O1233       O  0.93243077  0.44476603  0.03197288    -0.75560
O1234       O  0.91476372  0.38354535  0.99140700    -0.75750
C1235       C  0.89438029  0.36048277  0.97914688     1.04870
O1236       O  0.83350581  0.42910348  0.93661926    -0.83070
O1237       O  0.79495237  0.43851678  0.99744956    -0.80130
C1238       C  0.79763249  0.47064370  0.00254512     1.00410
O1239       O  0.82370998  0.48433882  0.01673699    -0.80160
O1240       O  0.89005077  0.99667496  0.03105538    -0.82770
C1241       C  0.89912287  0.00650688  0.99845327     1.04880
O1242       O  0.90236589  0.98477519  0.97208655    -0.75590
O1243       O  0.88959724  0.42624755  0.92851174    -0.75730
C1244       C  0.85920722  0.43067563  0.91549522     1.04840
Cr1245     Cr  0.83296438  0.40576307  0.98504028     1.93740
Cr1246     Cr  0.85712364  0.45785822  0.04427603     1.93210
Cr1247     Cr  0.90713978  0.43422979  0.98246721     1.39100
O1248       O  0.86585320  0.43251352  0.00377565    -1.20820
C1249       C  0.90475075  0.04307407  0.99178178    -0.11000
C1250       C  0.90412909  0.07430995  0.98864322    -0.12550
C1251       C  0.90400290  0.32433542  0.97778564    -0.11000
C1252       C  0.90476706  0.29310633  0.97464317    -0.12550
C1253       C  0.83960229  0.19849098  0.11924659    -0.11000
C1254       C  0.85253582  0.18813254  0.09023247    -0.12550
C1255       C  0.67639488  0.23512578  0.24067845    -0.11000
C1256       C  0.70760812  0.23588577  0.23764949    -0.12550
C1257       C  0.92641821  0.23508425  0.22557043    -0.11000
C1258       C  0.95764115  0.23597161  0.22862966    -0.12550
C1259       C  0.95776267  0.48609175  0.73753206    -0.11000
C1260       C  0.92656641  0.48513421  0.74080649    -0.12550
C1261       C  0.67657835  0.48504814  0.72528663    -0.11000
C1262       C  0.70777353  0.48600469  0.72850799    -0.12550
C1263       C  0.83929892  0.44848150  0.84729010    -0.11000
C1264       C  0.85206927  0.43805689  0.87635362    -0.12550
C1265       C  0.60228725  0.43791432  0.58971981    -0.11000
C1266       C  0.58948004  0.44843264  0.61873325    -0.12550
C1267       C  0.60398269  0.18766814  0.37530986    -0.11000
C1268       C  0.59068642  0.19814675  0.34653798    -0.12550
C1269       C  0.65477035  0.07432967  0.47821545    -0.11000
C1270       C  0.65537224  0.04312347  0.47493497    -0.12550
C1271       C  0.65529374  0.29329520  0.49054660    -0.11000
C1272       C  0.65423809  0.32450568  0.48746470    -0.12550
C1273       C  0.57148325  0.03681378  0.84032559    -0.11000
C1274       C  0.58219275  0.04976132  0.86919246    -0.12550
C1275       C  0.77772902  0.13198747  0.89953256    -0.11000
C1276       C  0.74813494  0.12142165  0.89963150    -0.12550
C1277       C  0.77096116  0.49235708  0.99199080    -0.11000
C1278       C  0.75073201  0.01293568  0.98172290    -0.12550
C1279       C  0.61846586  0.46366855  0.97639734    -0.11000
C1280       C  0.61948967  0.43248075  0.97949181    -0.12550
C1281       C  0.61942009  0.18251460  0.98669395    -0.11000
C1282       C  0.61846783  0.21370601  0.98984303    -0.12550
C1283       C  0.58189571  0.29999907  0.09681932    -0.11000
C1284       C  0.57122459  0.28709229  0.12571665    -0.12550
C1285       C  0.75103097  0.26296917  0.98555824    -0.11000
C1286       C  0.77128825  0.24239416  0.97534400    -0.12550
C1287       C  0.74798597  0.37158191  0.06694611    -0.11000
C1288       C  0.77761146  0.38208331  0.06717787    -0.12550
C1289       C  0.95314320  0.21966030  0.84064932    -0.11000
C1290       C  0.94284036  0.20656417  0.86963440    -0.12550
C1291       C  0.50768513  0.14384787  0.64946177    -0.11000
C1292       C  0.51817644  0.11424805  0.64945456    -0.12550
C1293       C  0.87728638  0.11789621  0.73697421    -0.11000
C1294       C  0.89784846  0.13827502  0.72694376    -0.12550
C1295       C  0.70268188  0.21935847  0.62605431    -0.11000
C1296       C  0.69214584  0.20648298  0.59706544    -0.12550
C1297       C  0.56649189  0.27098632  0.73809481    -0.11000
C1298       C  0.59770899  0.27171399  0.74118144    -0.12550
C1299       C  0.84770927  0.27172684  0.72508606    -0.11000
C1300       C  0.81648085  0.27095686  0.72822145    -0.12550
C1301       C  0.68372626  0.30940430  0.84658424    -0.11000
C1302       C  0.67053003  0.31988219  0.87542579    -0.12550
C1303       C  0.75759312  0.14389377  0.81679703    -0.11000
C1304       C  0.76799821  0.11425906  0.81646864    -0.12550
C1305       C  0.64795284  0.13807858  0.73984428    -0.11000
C1306       C  0.62742729  0.11775024  0.72955962    -0.12550
C1307       C  0.82147051  0.03676882  0.62561810    -0.11000
C1308       C  0.83211854  0.04977123  0.59674727    -0.12550
C1309       C  0.99736072  0.12307009  0.56629090    -0.11000
C1310       C  0.52687424  0.13383997  0.56622383    -0.12550
C1311       C  0.52155512  0.49309596  0.47508689    -0.11000
C1312       C  0.00134564  0.01365303  0.48543577    -0.12550
C1313       C  0.92208853  0.31940715  0.59013402    -0.11000
C1314       C  0.93487349  0.30911583  0.61927265    -0.12550
C1315       C  0.86913247  0.46353450  0.49031820    -0.11000
C1316       C  0.87015138  0.43231791  0.48735700    -0.12550
C1317       C  0.86906223  0.21370566  0.47527164    -0.11000
C1318       C  0.86962238  0.18249094  0.47846481    -0.12550
C1319       C  0.83128438  0.29959426  0.36991716    -0.11000
C1320       C  0.82082346  0.28643435  0.34105078    -0.12550
C1321       C  0.52325526  0.24333504  0.48528880    -0.11000
C1322       C  0.00302878  0.26390196  0.47502880    -0.12550
C1323       C  0.52700325  0.38359930  0.39884962    -0.11000
C1324       C  0.99728855  0.37331200  0.39890390    -0.12550
C1325       C  0.70343695  0.47025173  0.34072994    -0.11000
C1326       C  0.69305800  0.45706621  0.36961147    -0.12550
C1327       C  0.68330710  0.05914869  0.11963900    -0.11000
C1328       C  0.67013998  0.06971991  0.09082855    -0.12550
C1329       C  0.76721062  0.36392171  0.15023149    -0.10840
C1330       C  0.75665669  0.39351229  0.14994744    -0.12550
C1331       C  0.64729051  0.38887402  0.22844523    -0.11000
C1332       C  0.62666396  0.36852903  0.23843209    -0.12550
C1333       C  0.94302088  0.45666994  0.09645462    -0.11000
C1334       C  0.95337286  0.46985430  0.12535635    -0.12550
C1335       C  0.81632112  0.02125332  0.23734366    -0.11000
C1336       C  0.84754432  0.02196501  0.24037543    -0.12550
C1337       C  0.56628276  0.02123525  0.22871510    -0.11000
C1338       C  0.59750448  0.02206630  0.22576977    -0.12550
C1339       C  0.93348325  0.05910055  0.34630749    -0.11000
C1340       C  0.92034827  0.06948857  0.37520464    -0.12550
C1341       C  0.51726803  0.36384649  0.31616503    -0.11000
C1342       C  0.50686810  0.39349681  0.31613887    -0.12550
C1343       C  0.89753846  0.38837971  0.23883759    -0.11000
C1344       C  0.87687305  0.36799764  0.22908314    -0.12550
O1345       O  0.02261265  0.98155613  0.21801976    -0.83070
O1346       O  0.00946352  0.94452140  0.28205309    -0.80120
C1347       C  0.99346525  0.92722041  0.30620166     1.00390
O1348       O  0.96245666  0.93507202  0.31382204    -0.80150
O1349       O  0.95631615  0.00810203  0.32317920    -0.82800
C1350       C  0.94790960  0.53879270  0.31592312     1.04920
O1351       O  0.94566216  0.54898343  0.28180463    -0.75560
O1352       O  0.00698266  0.53178873  0.24152228    -0.75750
C1353       C  0.53017871  0.51146375  0.22958680     1.04870
O1354       O  0.96214935  0.95099216  0.18544732    -0.83070
O1355       O  0.95148900  0.91197801  0.24548512    -0.80130
C1356       C  0.91930691  0.91483890  0.24995899     1.00410
O1357       O  0.90561602  0.94078119  0.26439435    -0.80160
O1358       O  0.89357670  0.00694170  0.27983460    -0.82770
C1359       C  0.88401987  0.51625461  0.24724808     1.04880
O1360       O  0.90594502  0.51959683  0.22109889    -0.75590
O1361       O  0.96472836  0.50717412  0.17792669    -0.75730
C1362       C  0.96056970  0.47684924  0.16458215     1.04840
Cr1363     Cr  0.98470734  0.94993919  0.23424105     1.93740
Cr1364     Cr  0.93196624  0.97363554  0.29293390     1.93210
Cr1365     Cr  0.95640895  0.52420999  0.23203637     1.39100
O1366       O  0.95785377  0.98272880  0.25293008    -1.20820
O1367       O  0.75702219  0.53188329  0.22442293    -0.83070
O1368       O  0.69565555  0.54904717  0.18410704    -0.80120
C1369       C  0.69773787  0.53878326  0.14999708     1.00390
O1370       O  0.70601080  0.00804004  0.14275875    -0.80150
O1371       O  0.71215447  0.93499893  0.15241989    -0.82800
C1372       C  0.74320331  0.92720347  0.15991686     1.04920
O1373       O  0.75925632  0.94454122  0.18399184    -0.75560
O1374       O  0.77259881  0.98163821  0.24793757    -0.75750
C1375       C  0.78019612  0.51153908  0.23639199     1.04870
O1376       O  0.71475759  0.50746557  0.28807694    -0.83070
O1377       O  0.65594673  0.51985890  0.24495496    -0.80130
C1378       C  0.63397567  0.51643535  0.21886291     1.00410
O1379       O  0.64347564  0.00706457  0.18628842    -0.80160
O1380       O  0.65542748  0.94096360  0.20207540    -0.82770
C1381       C  0.66910089  0.91510632  0.21671308     1.04880
O1382       O  0.70131020  0.91213333  0.22084664    -0.75590
O1383       O  0.71217802  0.95126399  0.28070368    -0.75730
C1384       C  0.71061733  0.47716923  0.30149728     1.04840
Cr1385     Cr  0.70641718  0.52438605  0.23393737     1.93740
Cr1386     Cr  0.68175670  0.97366517  0.17325264     1.93210
Cr1387     Cr  0.73461692  0.95007245  0.23186244     1.39100
O1388       O  0.70777717  0.98286008  0.21314194    -1.20820
O1389       O  0.85954203  0.87304384  0.47444844    -0.83070
O1390       O  0.84190026  0.81171372  0.43434454    -0.80120
C1391       C  0.85176270  0.81412160  0.40013358     1.00390
O1392       O  0.88234068  0.82275648  0.39260447    -0.80150
O1393       O  0.95546461  0.82903791  0.40104981    -0.82800
C1394       C  0.96351826  0.85996973  0.40889244     1.04920
O1395       O  0.94644938  0.87583389  0.43331762    -0.75560
O1396       O  0.90988819  0.88865828  0.49773938    -0.75750
C1397       C  0.87993622  0.89623342  0.48634272     1.04870
O1398       O  0.88460616  0.83081629  0.53777091    -0.83070
O1399       O  0.87183800  0.77204561  0.49462069    -0.80130
C1400       C  0.87491234  0.75017401  0.46838398     1.00410
O1401       O  0.88401643  0.75978004  0.43571842    -0.80160
O1402       O  0.95038240  0.77194508  0.45010353    -0.82770
C1403       C  0.97646197  0.78563905  0.46429791     1.04880
O1404       O  0.97926998  0.81778520  0.46918431    -0.75590
O1405       O  0.94070693  0.82805397  0.52979976    -0.75730
C1406       C  0.91498280  0.82655896  0.55089501     1.04840
Cr1407     Cr  0.86714805  0.82249113  0.48382301     1.93740
Cr1408     Cr  0.91714250  0.79834454  0.42226074     1.93210
Cr1409     Cr  0.94140076  0.85085482  0.48105057     1.39100
O1410       O  0.90846015  0.82402266  0.46253089    -1.20820
O1411       O  0.90927521  0.63889882  0.46813643    -0.83070
O1412       O  0.94650141  0.62545460  0.53197032    -0.80120
C1413       C  0.96386464  0.60936913  0.55597437     1.00390
O1414       O  0.95625551  0.57821024  0.56320573    -0.80150
O1415       O  0.88335579  0.57200877  0.57336859    -0.82800
C1416       C  0.85251976  0.56392686  0.56625498     1.04920
O1417       O  0.84209159  0.56186051  0.53219038    -0.75560
O1418       O  0.85901031  0.62316410  0.49155237    -0.75750
C1419       C  0.87934378  0.64639172  0.47956998     1.04870
O1420       O  0.93948341  0.57866479  0.43509217    -0.83070
O1421       O  0.97871236  0.56765261  0.49472550    -0.80130
C1422       C  0.97554927  0.53539751  0.49824767     1.00410
O1423       O  0.94988340  0.52163889  0.51324601    -0.80160
O1424       O  0.88393169  0.00959754  0.52977675    -0.82770
C1425       C  0.87454556  0.00005042  0.49723776     1.04880
O1426       O  0.87099205  0.52202554  0.47118132    -0.75590
O1427       O  0.88324075  0.58075734  0.42794257    -0.75730
C1428       C  0.91351506  0.57681053  0.41442330     1.04840
Cr1429     Cr  0.94081209  0.60094531  0.48401494     1.93740
Cr1430     Cr  0.91747650  0.54785177  0.54253612     1.93210
Cr1431     Cr  0.86650586  0.57252383  0.48216926     1.39100
O1432       O  0.90808386  0.57399439  0.50279687    -1.20820
O1433       O  0.77261934  0.73136050  0.71801396    -0.83070
O1434       O  0.75990371  0.69475323  0.78247288    -0.80120
C1435       C  0.74409259  0.67755377  0.80685836     1.00390
O1436       O  0.71309975  0.68533838  0.81464042    -0.80150
O1437       O  0.70669219  0.75834899  0.82367348    -0.82800
C1438       C  0.69821408  0.78899337  0.81628404     1.04920
O1439       O  0.69595847  0.79903899  0.78211677    -0.75560
O1440       O  0.75723585  0.78161940  0.74160121    -0.75750
C1441       C  0.78033367  0.76126445  0.72946278     1.04870
O1442       O  0.71193918  0.70060053  0.68615687    -0.83070
O1443       O  0.70185200  0.66178912  0.74655056    -0.80130
C1444       C  0.66967653  0.66457061  0.75109109     1.00410
O1445       O  0.65596961  0.69053333  0.76548241    -0.80160
O1446       O  0.64383580  0.75679151  0.78056254    -0.82770
C1447       C  0.63420377  0.76605622  0.74798519     1.04880
O1448       O  0.65606002  0.76940033  0.72176820    -0.75590
O1449       O  0.71460140  0.75675648  0.67838197    -0.75730
C1450       C  0.71023298  0.72639935  0.66519902     1.04840
Cr1451     Cr  0.73486002  0.69980271  0.73479226     1.93740
Cr1452     Cr  0.68235889  0.72365664  0.79369405     1.93210
Cr1453     Cr  0.70656235  0.77403772  0.73243886     1.39100
O1454       O  0.70807091  0.73263557  0.75350766    -1.20820
O1455       O  0.00727358  0.78164292  0.72481392    -0.83070
O1456       O  0.94620400  0.79891512  0.68403153    -0.80120
C1457       C  0.94870790  0.78870823  0.64992487     1.00390
O1458       O  0.95696631  0.75796924  0.64276768    -0.80150
O1459       O  0.96303311  0.68509211  0.65211837    -0.82800
C1460       C  0.99406055  0.67736069  0.65976900     1.04920
O1461       O  0.00990960  0.69452446  0.68416256    -0.75560
O1462       O  0.02268744  0.73139936  0.74843655    -0.75750
C1463       C  0.53037024  0.76129392  0.73694211     1.04870
O1464       O  0.96460680  0.75701268  0.78810103    -0.83070
O1465       O  0.90607895  0.76954135  0.74456077    -0.80130
C1466       C  0.88425184  0.76615536  0.71832154     1.00410
O1467       O  0.89397224  0.75689764  0.68577085    -0.80160
O1468       O  0.90594224  0.69067949  0.70129255    -0.82770
C1469       C  0.91960845  0.66472656  0.71574802     1.04880
O1470       O  0.95178161  0.66187419  0.72027332    -0.75590
O1471       O  0.96205480  0.70082512  0.78052410    -0.75730
C1472       C  0.96040670  0.72667311  0.80141550     1.04840
Cr1473     Cr  0.95661414  0.77411469  0.73392944     1.93740
Cr1474     Cr  0.93242170  0.72356778  0.67289253     1.93210
Cr1475     Cr  0.98488670  0.69983491  0.73184719     1.39100
O1476       O  0.95813173  0.73264283  0.71303605    -1.20820
O1477       O  0.65957004  0.88918363  0.96934682    -0.83070
O1478       O  0.69697035  0.87481592  0.03284531    -0.80120
C1479       C  0.71428498  0.85834401  0.05658110     1.00390
O1480       O  0.70635480  0.82721981  0.06351666    -0.80150
O1481       O  0.63333423  0.82173665  0.07351465    -0.82800
C1482       C  0.60243564  0.81393237  0.06634720     1.04920
O1483       O  0.59202286  0.81192787  0.03226783    -0.75560
O1484       O  0.60905527  0.87313997  0.99193279    -0.75750
C1485       C  0.62946292  0.89647643  0.98043899     1.04870
O1486       O  0.68955363  0.82917096  0.93534153    -0.83070
O1487       O  0.72860976  0.81708844  0.99479964    -0.80130
C1488       C  0.72526124  0.78482740  0.99824180     1.00410
O1489       O  0.69948711  0.77115247  0.01312980    -0.80160
O1490       O  0.63340484  0.75950441  0.02960864    -0.82770
C1491       C  0.62410104  0.75013274  0.99698479     1.04880
O1492       O  0.62085231  0.77221311  0.97101393    -0.75590
O1493       O  0.63331462  0.83102427  0.92813345    -0.75730
C1494       C  0.66361645  0.82723672  0.91464327     1.04840
Cr1495     Cr  0.69096699  0.85084860  0.98458787     1.93740
Cr1496     Cr  0.66726646  0.79742475  0.04258800     1.93210
Cr1497     Cr  0.61651693  0.82262570  0.98230130     1.39100
O1498       O  0.65808056  0.82387940  0.00303312    -1.20820
O1499       O  0.60899312  0.62315432  0.97418557    -0.83070
O1500       O  0.59211773  0.56190198  0.93374208    -0.80120
C1501       C  0.60266463  0.56376835  0.89969628     1.00390
O1502       O  0.63360534  0.57150472  0.89262741    -0.80150
O1503       O  0.70658191  0.57701125  0.90303427    -0.82800
C1504       C  0.71442806  0.60817064  0.90988053     1.04920
O1505       O  0.69700269  0.62469340  0.93347479    -0.75560
O1506       O  0.65947628  0.63921701  0.99683787    -0.75750
C1507       C  0.62938091  0.64649982  0.98571971     1.04870
O1508       O  0.63305138  0.58098068  0.03805336    -0.83070
O1509       O  0.62069787  0.52219922  0.99516881    -0.80130
C1510       C  0.62405420  0.00008918  0.96924573     1.00410
O1511       O  0.63346053  0.00942422  0.93665703    -0.80160
O1512       O  0.69943788  0.52107534  0.95359259    -0.82770
C1513       C  0.72512097  0.53477686  0.96863695     1.04880
O1514       O  0.72853436  0.56705100  0.97182303    -0.75590
O1515       O  0.68932345  0.57928228  0.03105608    -0.75730
C1516       C  0.66332162  0.57722267  0.05163713     1.04840
Cr1517     Cr  0.61642022  0.57261328  0.98382655     1.93740
Cr1518     Cr  0.66739667  0.54728384  0.92382498     1.93210
Cr1519     Cr  0.69087838  0.60084775  0.98177689     1.39100
O1520       O  0.65804726  0.57384397  0.96326042    -1.20820
O1521       O  0.61504035  0.61790432  0.46817020    -0.83070
O1522       O  0.57779029  0.63140900  0.53198190    -0.80120
C1523       C  0.56038639  0.64752435  0.55592620     1.00390
O1524       O  0.56799960  0.67868616  0.56313271    -0.80150
O1525       O  0.64086931  0.68464362  0.57344124    -0.82800
C1526       C  0.67175257  0.69260027  0.56642238     1.04920
O1527       O  0.68225225  0.69476408  0.53237945    -0.75560
O1528       O  0.66536889  0.63362706  0.49144508    -0.75750
C1529       C  0.64501577  0.61041570  0.47946686     1.04870
O1530       O  0.58491545  0.67816210  0.43512352    -0.83070
O1531       O  0.54572572  0.68928925  0.49468751    -0.80130
C1532       C  0.54897678  0.72154316  0.49815573     1.00410
O1533       O  0.57464195  0.73525495  0.51320604    -0.80160
O1534       O  0.64057527  0.74715180  0.52997952    -0.82770
C1535       C  0.64993187  0.75676054  0.49745329     1.04880
O1536       O  0.65346933  0.73481908  0.47136892    -0.75590
O1537       O  0.64116930  0.67625132  0.42796951    -0.75730
C1538       C  0.61087860  0.68017164  0.41447448     1.04840
Cr1539     Cr  0.58355551  0.65590399  0.48402991     1.93740
Cr1540     Cr  0.60690145  0.70895122  0.54257512     1.93210
Cr1541     Cr  0.65789639  0.68429586  0.48224276     1.39100
O1542       O  0.61630597  0.68281573  0.50283403    -1.20820
O1543       O  0.66484310  0.88374845  0.47432434    -0.83070
O1544       O  0.68249602  0.94499342  0.43404876    -0.80120
C1545       C  0.67259694  0.94257543  0.39985018     1.00390
O1546       O  0.64199668  0.93399630  0.39234976    -0.80150
O1547       O  0.56886625  0.92784363  0.40086212    -0.82800
C1548       C  0.56081695  0.89691098  0.40870784     1.04920
O1549       O  0.57793752  0.88103776  0.43307823    -0.75560
O1550       O  0.61444770  0.86818757  0.49753310    -0.75750
C1551       C  0.64443240  0.86058837  0.48625806     1.04870
O1552       O  0.63979225  0.92615650  0.53750429    -0.83070
O1553       O  0.65262878  0.48479427  0.49428577    -0.80130
C1554       C  0.64955830  0.50665030  0.46804081     1.00410
O1555       O  0.64046325  0.49702093  0.43538179    -0.80160
O1556       O  0.57409735  0.98496215  0.44989701    -0.82770
C1557       C  0.54802843  0.97130827  0.46416290     1.04880
O1558       O  0.54515289  0.93915236  0.46894883    -0.75590
O1559       O  0.58368620  0.92884732  0.52950340    -0.75730
C1560       C  0.60940989  0.93047939  0.55057618     1.04840
Cr1561     Cr  0.65726526  0.93433453  0.48356121     1.93740
Cr1562     Cr  0.60726166  0.95849288  0.42200744     1.93210
Cr1563     Cr  0.58298494  0.90602111  0.48080195     1.39100
O1564       O  0.61594870  0.93281632  0.46227710    -1.20820
O1565       O  0.75138870  0.52589664  0.71854648    -0.83070
O1566       O  0.76508709  0.56327131  0.78228140    -0.80120
C1567       C  0.78131984  0.58058682  0.80624353     1.00390
O1568       O  0.81236770  0.57270820  0.81357047    -0.80150
O1569       O  0.81778344  0.49978540  0.82361303    -0.82800
C1570       C  0.82563919  0.96889966  0.81660135     1.04920
O1571       O  0.82794205  0.95843951  0.78256524    -0.75560
O1572       O  0.76699685  0.97548929  0.74166514    -0.75750
C1573       C  0.74384045  0.99587251  0.72976227     1.04870
O1574       O  0.81185021  0.55591810  0.68542048    -0.83070
O1575       O  0.82317200  0.59507603  0.74506666    -0.80130
C1576       C  0.85538285  0.59188417  0.74902916     1.00410
O1577       O  0.86894734  0.56605074  0.76385530    -0.80160
O1578       O  0.88047784  0.49994814  0.78030285    -0.82770
C1579       C  0.89006837  0.99063403  0.74775032     1.04880
O1580       O  0.86814102  0.98724689  0.72163602    -0.75590
O1581       O  0.80968575  0.99967052  0.67824360    -0.75730
C1582       C  0.81379722  0.52994761  0.66476774     1.04840
Cr1583     Cr  0.78957578  0.55733913  0.73434613     1.93740
Cr1584     Cr  0.84240939  0.53372603  0.79295782     1.93210
Cr1585     Cr  0.81763520  0.98290126  0.73248352     1.39100
O1586       O  0.81631575  0.52449291  0.75313250    -1.20820
O1587       O  0.51698672  0.97554895  0.72430385    -0.83070
O1588       O  0.57797179  0.95844791  0.68342565    -0.80120
C1589       C  0.57578285  0.96890585  0.64937729     1.00390
O1590       O  0.56799577  0.49980863  0.64233236    -0.80150
O1591       O  0.56257752  0.57274326  0.65241271    -0.82800
C1592       C  0.53150389  0.58058216  0.65965220     1.04920
O1593       O  0.51524187  0.56325557  0.68357808    -0.75560
O1594       O  0.50140187  0.52599125  0.74734723    -0.75750
C1595       C  0.49383883  0.99595110  0.73619935     1.04870
O1596       O  0.55967855  0.99972111  0.78771961    -0.83070
O1597       O  0.61814255  0.98721507  0.74440048    -0.80130
C1598       C  0.64010093  0.99058816  0.71831707     1.00410
O1599       O  0.63056617  0.49993235  0.68576261    -0.80160
O1600       O  0.61908106  0.56604474  0.70227410    -0.82770
C1601       C  0.60551324  0.59185320  0.71715787     1.04880
O1602       O  0.57328569  0.59510176  0.72091653    -0.75590
O1603       O  0.56182861  0.55597358  0.78054158    -0.75730
C1604       C  0.56378324  0.53000094  0.80118936     1.04840
Cr1605     Cr  0.56764150  0.98292488  0.73349942     1.93740
Cr1606     Cr  0.59256382  0.53374437  0.67307112     1.93210
Cr1607     Cr  0.53963930  0.55738161  0.73157403     1.39100
O1608       O  0.56638758  0.52451355  0.71284357    -1.20820
O1609       O  0.50136888  0.77568059  0.21822538    -0.83070
O1610       O  0.51460327  0.81274588  0.28223036    -0.80120
C1611       C  0.53062865  0.83008124  0.30632744     1.00390
O1612       O  0.56162931  0.82220499  0.31396347    -0.80150
O1613       O  0.56771998  0.74913992  0.32347630    -0.82800
C1614       C  0.57609621  0.71843205  0.31622408     1.04920
O1615       O  0.57822392  0.70819772  0.28211358    -0.75560
O1616       O  0.51692029  0.72541197  0.24170324    -0.75750
C1617       C  0.49375939  0.74575189  0.22969920     1.04870
O1618       O  0.56191379  0.80610719  0.18564684    -0.83070
O1619       O  0.57263857  0.84517071  0.24559022    -0.80130
C1620       C  0.60483126  0.84222800  0.24992495     1.00410
O1621       O  0.61847139  0.81633013  0.26451403    -0.80160
O1622       O  0.63039856  0.75018952  0.28012515    -0.82770
C1623       C  0.63993545  0.74082768  0.24755591     1.04880
O1624       O  0.61800798  0.73745888  0.22142008    -0.75590
O1625       O  0.55935165  0.74991278  0.17821017    -0.75730
C1626       C  0.56364017  0.78020868  0.16485789     1.04840
Cr1627     Cr  0.53934173  0.80724475  0.23442410     1.93740
Cr1628     Cr  0.59206889  0.78356219  0.29315124     1.93210
Cr1629     Cr  0.56753853  0.73292721  0.23232260     1.39100
O1630       O  0.56614241  0.77443388  0.25317107    -1.20820
O1631       O  0.76686273  0.72528778  0.22466249    -0.83070
O1632       O  0.82795692  0.70829468  0.18393666    -0.80120
C1633       C  0.82563675  0.71875547  0.14990894     1.00390
O1634       O  0.81752475  0.74958195  0.14293357    -0.80150
O1635       O  0.81178201  0.82251471  0.15300210    -0.82800
C1636       C  0.78073447  0.83032258  0.16047563     1.04920
O1637       O  0.76465149  0.81299752  0.18454352    -0.75560
O1638       O  0.75130389  0.77552395  0.24824665    -0.75750
C1639       C  0.74371222  0.74562470  0.23668258     1.04870
O1640       O  0.80936104  0.74939282  0.28827003    -0.83070
O1641       O  0.86799469  0.73714047  0.24487231    -0.80130
C1642       C  0.88990143  0.74062463  0.21873256     1.00410
O1643       O  0.88027733  0.75001815  0.18620883    -0.80160
O1644       O  0.86855292  0.81604993  0.20252862    -0.82770
C1645       C  0.85497397  0.84187167  0.21734071     1.04880
O1646       O  0.82277660  0.84494920  0.22152046    -0.75590
O1647       O  0.81179953  0.80563002  0.28116690    -0.75730
C1648       C  0.81348765  0.77964291  0.30182032     1.04840
Cr1649     Cr  0.81748179  0.73270933  0.23400116     1.93740
Cr1650     Cr  0.84205774  0.78363750  0.17354027     1.93210
Cr1651     Cr  0.78934446  0.80708960  0.23234861     1.39100
O1652       O  0.81609262  0.77432478  0.21342513    -1.20820
O1653       O  0.91494789  0.63352459  0.97497139    -0.83070
O1654       O  0.93248372  0.69473842  0.93423191    -0.80120
C1655       C  0.92250158  0.69217273  0.90006718     1.00390
O1656       O  0.89191494  0.68345444  0.89272505    -0.80150
O1657       O  0.81896925  0.67679160  0.90153455    -0.82800
C1658       C  0.81124971  0.64581296  0.90958578     1.04920
O1659       O  0.82835955  0.63029684  0.93423425    -0.75560
O1660       O  0.86476948  0.61828810  0.99891683    -0.75750
C1661       C  0.89458482  0.61048318  0.98733104     1.04870
O1662       O  0.88999787  0.67631554  0.03796498    -0.83070
O1663       O  0.90265780  0.73478911  0.99430079    -0.80130
C1664       C  0.89927119  0.75652677  0.96796548     1.00410
O1665       O  0.89012704  0.74668889  0.93539614    -0.80160
O1666       O  0.82386767  0.73437615  0.95014917    -0.82770
C1667       C  0.79786085  0.72067718  0.96448888     1.04880
O1668       O  0.79514661  0.68853117  0.96939522    -0.75590
O1669       O  0.83388110  0.67914926  0.03003697    -0.75730
C1670       C  0.85963381  0.68074651  0.05107660     1.04840
Cr1671     Cr  0.90738307  0.68423787  0.98390722     1.93740
Cr1672     Cr  0.85712744  0.70790459  0.92235441     1.93210
Cr1673     Cr  0.83319741  0.65578731  0.98165104     1.39100
O1674       O  0.86602675  0.68252735  0.96278051    -1.20820
O1675       O  0.86450332  0.86824766  0.96769968    -0.83070
O1676       O  0.82825418  0.88028419  0.03248312    -0.80120
C1677       C  0.81120300  0.89580459  0.05717776     1.00390
O1678       O  0.81902922  0.92674670  0.06527737    -0.80150
O1679       O  0.89206304  0.93338711  0.07367110    -0.82800
C1680       C  0.92259887  0.94217264  0.06617365     1.04920
O1681       O  0.93242965  0.94476646  0.03197278    -0.75560
O1682       O  0.91476262  0.88354581  0.99140703    -0.75750
C1683       C  0.89437924  0.86048308  0.97914719     1.04870
O1684       O  0.83350397  0.92910339  0.93661994    -0.83070
O1685       O  0.79495106  0.93851666  0.99745058    -0.80130
C1686       C  0.79763115  0.97064364  0.00254578     1.00410
O1687       O  0.82370860  0.98433887  0.01673767    -0.80160
O1688       O  0.89005206  0.49667474  0.03105512    -0.82770
C1689       C  0.89912431  0.50650669  0.99845305     1.04880
O1690       O  0.90236756  0.48477493  0.97208640    -0.75590
O1691       O  0.88959538  0.92624800  0.92851192    -0.75730
C1692       C  0.85920522  0.93067600  0.91549570     1.04840
Cr1693     Cr  0.83296313  0.90576307  0.98504104     1.93740
Cr1694     Cr  0.85712254  0.95785840  0.04427652     1.93210
Cr1695     Cr  0.90713835  0.93423016  0.98246729     1.39100
O1696       O  0.86585194  0.93251372  0.00377607    -1.20820
C1697       C  0.90475205  0.54307399  0.99178153    -0.11000
C1698       C  0.90413030  0.57430992  0.98864294    -0.12550
C1699       C  0.90400213  0.82433581  0.97778604    -0.11000
C1700       C  0.90476673  0.79310673  0.97464370    -0.12550
C1701       C  0.83960263  0.69849108  0.11924648    -0.11000
C1702       C  0.85253621  0.68813258  0.09023239    -0.12550
C1703       C  0.67639501  0.73512550  0.24067815    -0.11000
C1704       C  0.70760825  0.73588555  0.23764927    -0.12550
C1705       C  0.92641829  0.73508387  0.22557064    -0.11000
C1706       C  0.95764123  0.73597114  0.22862985    -0.12550
C1707       C  0.95775988  0.98609148  0.73753126    -0.11000
C1708       C  0.92656365  0.98513386  0.74080582    -0.12550
C1709       C  0.67657558  0.98504795  0.72528727    -0.11000
C1710       C  0.70777073  0.98600453  0.72850874    -0.12550
C1711       C  0.83929650  0.94848253  0.84729080    -0.11000
C1712       C  0.85206693  0.93805770  0.87635423    -0.12550
C1713       C  0.60228545  0.93791509  0.58971935    -0.11000
C1714       C  0.58947805  0.94843357  0.61873267    -0.12550
C1715       C  0.60398260  0.68766864  0.37531038    -0.11000
C1716       C  0.59068642  0.69814726  0.34653843    -0.12550
C1717       C  0.65477119  0.57432972  0.47821559    -0.11000
C1718       C  0.65537309  0.54312346  0.47493516    -0.12550
C1719       C  0.65529331  0.79329552  0.49054662    -0.11000
C1720       C  0.65423730  0.82450599  0.48746466    -0.12550
C1721       C  0.57148549  0.53681421  0.84032557    -0.11000
C1722       C  0.58219441  0.54976171  0.86919267    -0.12550
C1723       C  0.77772992  0.63198763  0.89953245    -0.11000
C1724       C  0.74813588  0.62142171  0.89963173    -0.12550
C1725       C  0.77095998  0.99235697  0.99199074    -0.11000
C1726       C  0.75073295  0.51293584  0.98172370    -0.12550
C1727       C  0.61846608  0.96366819  0.97639671    -0.11000
C1728       C  0.61949032  0.93248040  0.97949123    -0.12550
C1729       C  0.61942071  0.68251458  0.98669412    -0.11000
C1730       C  0.61846836  0.71370594  0.98984315    -0.12550
C1731       C  0.58189537  0.79999835  0.09681870    -0.11000
C1732       C  0.57122434  0.78709137  0.12571600    -0.12550
C1733       C  0.75103174  0.76296878  0.98556009    -0.11000
C1734       C  0.77128894  0.74239382  0.97534537    -0.12550
C1735       C  0.74798551  0.87158187  0.06694714    -0.11000
C1736       C  0.77761097  0.88208327  0.06717881    -0.12550
C1737       C  0.95314504  0.71966200  0.84065003    -0.11000
C1738       C  0.94284151  0.70656567  0.86963476    -0.12550
C1739       C  0.50768696  0.64384723  0.64946235    -0.11000
C1740       C  0.51817822  0.61424737  0.64945479    -0.12550
C1741       C  0.87728864  0.61789740  0.73697872    -0.11000
C1742       C  0.89785070  0.63827635  0.72694855    -0.12550
C1743       C  0.70268404  0.71935991  0.62605370    -0.11000
C1744       C  0.69214742  0.70648423  0.59706514    -0.12550
C1745       C  0.56649466  0.77098697  0.73809428    -0.11000
C1746       C  0.59771175  0.77171465  0.74118080    -0.12550
C1747       C  0.84771202  0.77172776  0.72508689    -0.11000
C1748       C  0.81648362  0.77095769  0.72822221    -0.12550
C1749       C  0.68372860  0.80940332  0.84658486    -0.11000
C1750       C  0.67053221  0.81988125  0.87542634    -0.12550
C1751       C  0.75759474  0.64389291  0.81679657    -0.11000
C1752       C  0.76799974  0.61425815  0.81646867    -0.12550
C1753       C  0.64795538  0.63807951  0.73984033    -0.11000
C1754       C  0.62742985  0.61775102  0.72955598    -0.12550
C1755       C  0.82147270  0.53676952  0.62561834    -0.11000
C1756       C  0.83212017  0.54977183  0.59674726    -0.12550
C1757       C  0.99736188  0.62306965  0.56629099    -0.11000
C1758       C  0.52687559  0.63383935  0.56622423    -0.12550
C1759       C  0.52155444  0.99309617  0.47508792    -0.11000
C1760       C  0.00134627  0.51365291  0.48543475    -0.12550
C1761       C  0.92209046  0.81940623  0.59013358    -0.11000
C1762       C  0.93487566  0.80911481  0.61927209    -0.12550
C1763       C  0.86913271  0.96353418  0.49031872    -0.11000
C1764       C  0.87015203  0.93231760  0.48735745    -0.12550
C1765       C  0.86906267  0.71370559  0.47527165    -0.11000
C1766       C  0.86962296  0.68249093  0.47846483    -0.12550
C1767       C  0.83128433  0.79959395  0.36991748    -0.11000
C1768       C  0.82082342  0.78643402  0.34105108    -0.12550
C1769       C  0.52325529  0.74333448  0.48528991    -0.11000
C1770       C  0.00302898  0.76390134  0.47502887    -0.12550
C1771       C  0.52700291  0.88359928  0.39884866    -0.11000
C1772       C  0.99728829  0.87331172  0.39890277    -0.12550
C1773       C  0.70343610  0.97025184  0.34072968    -0.11000
C1774       C  0.69305714  0.95706639  0.36961125    -0.12550
C1775       C  0.68330724  0.55914861  0.11963952    -0.11000
C1776       C  0.67014016  0.56972005  0.09082918    -0.12550
C1777       C  0.76721103  0.86392195  0.15023211    -0.10840
C1778       C  0.75665717  0.89351256  0.14994796    -0.12550
C1779       C  0.64729059  0.88887359  0.22844328    -0.11000
C1780       C  0.62666408  0.86852849  0.23842996    -0.12550
C1781       C  0.94302008  0.95667057  0.09645444    -0.11000
C1782       C  0.95337210  0.96985503  0.12535611    -0.12550
C1783       C  0.81632148  0.52125317  0.23734330    -0.11000
C1784       C  0.84754467  0.52196485  0.24037504    -0.12550
C1785       C  0.56628304  0.52123484  0.22871577    -0.11000
C1786       C  0.59750476  0.52206607  0.22577060    -0.12550
C1787       C  0.93348341  0.55910071  0.34630709    -0.11000
C1788       C  0.92034845  0.56948893  0.37520415    -0.12550
C1789       C  0.51726837  0.86384675  0.31616411    -0.11000
C1790       C  0.50686831  0.89349701  0.31613798    -0.12550
C1791       C  0.89753851  0.88837980  0.23883763    -0.11000
C1792       C  0.87687315  0.86799759  0.22908342    -0.12550
loop_ 
_geom_bond_atom_site_label_1 
_geom_bond_atom_site_label_2 
_geom_bond_distance 
_geom_bond_site_symmetry_2 
_ccdc_geom_bond_type 
O1          Cr19   1.995       .  S
O1         C1353   1.262       .  A
O2          Cr19   1.960       .  S
O2            C3   1.251       .  A
C3            O4   1.268       .  A
C3         C1342   1.449       .  S
O4          Cr20   2.043       .  S
O5          Cr20   1.954       .  S
O5          C454   1.259       .  A
C6            O7   1.276       .  A
C6          O453   1.259       .  A
C6          C443   1.447       .  S
O7          Cr21   2.052       .  S
O8          Cr21   2.008       .  S
O8          C905   1.267       .  A
C9         O1345   1.262   1_545  A
C9          O904   1.267       .  A
C9          C441   1.448       .  S
O10         Cr19   1.939       .  S
O10         C466   1.246       .  A
O11         Cr19   1.992       .  S
O11          C12   1.261       .  A
C12          O13   1.246       .  A
C12         C447   1.383       .  S
O13         Cr20   1.918       .  S
O14         Cr20   2.022       .  S
O14         C463   1.266       .  A
C15          O16   1.264       .  A
C15         O462   1.266       .  A
C15         C440   1.450       .  S
O16         Cr21   1.999       .  S
O17         Cr21   2.055       .  S
O17          C18   1.276   1_545  A
C18         O458   1.246       .  A
C18         C886   1.445       .  S
Cr19         O22   1.770       .  S
Cr20         O22   1.772       .  S
Cr21        O470   1.769   1_545  S
O22        Cr469   1.769       .  S
O23         Cr41   2.009       .  S
O23          C31   1.268       .  A
O24         Cr41   2.052       .  S
O24          C25   1.276       .  A
C25         O474   1.259       .  A
C25         C431   1.447       .  S
O26         Cr42   1.954       .  S
O26         C473   1.259       .  A
O27         Cr42   2.043       .  S
O27          C28   1.268       .  A
C28          O29   1.251       .  A
C28         C434   1.449       .  S
O29         Cr43   1.960       .  S
O30         Cr43   1.994       .  S
O30         C479   1.262       .  A
C31         O478   1.262   1_545  A
C31         C439   1.448       .  S
O32         Cr41   2.055       .  S
O32          C40   1.276   1_545  A
O33         Cr41   2.000       .  S
O33          C34   1.264       .  A
C34         O483   1.266       .  A
C34         C442   1.450       .  S
O35         Cr42   2.021       .  S
O35         C482   1.266       .  A
O36         Cr42   1.919       .  S
O36          C37   1.246       .  A
C37          O38   1.261       .  A
C37         C435   1.384       .  S
O38         Cr43   1.992       .  S
O39         Cr43   1.939       .  S
O39         C488   1.246       .  A
C40         O487   1.246       .  A
C40         C877   1.444       .  S
Cr41        O492   1.769   1_545  S
Cr42         O44   1.773       .  S
Cr43         O44   1.770       .  S
O44        Cr489   1.769       .  S
O45         Cr63   2.007       .  S
O45          C53   1.267       .  A
O46         Cr63   2.052       .  S
O46          C47   1.276       .  A
C47          O48   1.258       .  A
C47         C423   1.447       .  S
O48         Cr64   1.954       .  S
O49         Cr64   2.043       .  S
O49          C50   1.268       .  A
C50          O51   1.251       .  A
C50         C428   1.449       .  S
O51         Cr65   1.960       .  S
O52         Cr65   1.996       .  S
O52          C53   1.263       .  A
C53         C420   1.448       .  S
O54         Cr63   2.055       .  S
O54          C62   1.276       .  A
O55         Cr63   1.998       .  S
O55          C56   1.264       .  A
C56          O57   1.267       .  A
C56         C421   1.450       .  S
O57         Cr64   2.024       .  S
O58         Cr64   1.918       .  S
O58          C59   1.246       .  A
C59          O60   1.261       .  A
C59         C426   1.383       .  S
O60         Cr65   1.992       .  S
O61         Cr65   1.942       .  S
O61          C62   1.247       .  A
C62         C417   1.446       .  S
Cr63         O66   1.770       .  S
Cr64         O66   1.773       .  S
Cr65         O66   1.770       .  S
O67         Cr85   1.992       .  S
O67          C75   1.262       .  A
O68         Cr85   1.960       .  S
O68          C69   1.251       .  A
C69          O70   1.267       .  A
C69         C413   1.447       .  S
O70         Cr86   2.042       .  S
O71         Cr86   1.954       .  S
O71          C72   1.259       .  A
C72          O73   1.277       .  A
C72         C412   1.447       .  S
O73         Cr87   2.052       .  S
O74         Cr87   2.009       .  S
O74          C75   1.268       .  A
C75         C422   1.448       .  S
O76         Cr85   1.939       .  S
O76          C84   1.246       .  A
O77         Cr85   1.990       .  S
O77          C78   1.261       .  A
C78          O79   1.246       .  A
C78         C416   1.383       .  S
O79         Cr86   1.920       .  S
O80        Cr534   2.020       .  S
O80          C81   1.265       .  A
C81         O530   1.264       .  A
C81         C419   1.450       .  S
O82         Cr87   2.001       .  S
O82         C529   1.264       .  A
O83         Cr87   2.055       .  S
O83          C84   1.276       .  A
C84         C444   1.444       .  S
Cr85         O88   1.770       .  S
Cr86        O528   2.020       .  S
Cr86         O88   1.773       .  S
Cr87         O88   1.769       .  S
O89        Cr107   1.995       .  S
O89          C97   1.262       .  A
O90        Cr107   1.960       .  S
O90          C91   1.251       .  A
C91          O92   1.268       .  A
C91         C407   1.448       .  S
O92        Cr108   2.042       .  S
O93        Cr108   1.954       .  S
O93          C94   1.259       .  A
C94          O95   1.276       .  A
C94         C405   1.447       .  S
O95        Cr109   2.052       .  S
O96        Cr109   2.010       .  S
O96          C97   1.268       .  A
C97         C404   1.449       .  S
O98        Cr107   1.940       .  S
O98         C106   1.247       .  A
O99        Cr107   1.992       .  S
O99         C100   1.261       .  A
C100        O101   1.246       .  A
C100        C409   1.384       .  S
O101       Cr108   1.920       .  S
O102       Cr108   2.022       .  S
O102        C103   1.266       .  A
C103        O104   1.264       .  A
C103        C402   1.450       .  S
O104       Cr109   1.999       .  S
O105       Cr109   2.055       .  S
O105        C106   1.276       .  A
C106        C399   1.445       .  S
Cr107       O110   1.770       .  S
Cr108       O110   1.773       .  S
Cr109       O110   1.769       .  S
O111       Cr129   2.008       .  S
O111       C1015   1.267       .  A
O112       Cr129   2.054       .  S
O112        C113   1.277       .  A
C113        O114   1.258       .  A
C113        C418   1.447       .  S
O114       Cr130   1.953       .  S
O115       Cr130   2.042       .  S
O115        C116   1.268       .  A
C116        O117   1.251       .  A
C116       C1291   1.448       .  S
O117       Cr131   1.960       .  S
O118       Cr131   1.994       .  S
O118       C1015   1.262       .  A
C119       O1007   1.267       .  A
C119       O1014   1.262       .  A
C119        C401   1.448       .  S
O120       Cr129   2.056       .  S
O120        C128   1.276       .  A
O121       Cr129   2.000       .  S
O121        C122   1.264       .  A
C122        O123   1.266       .  A
C122        C403   1.451       .  S
O123       Cr130   2.023       .  S
O124       Cr130   1.919       .  S
O124        C125   1.246       .  A
C125        O126   1.261       .  A
C125        C398   1.383       .  S
O126       Cr131   1.991       .  S
O127       Cr131   1.940       .  S
O127        C128   1.247       .  A
C128        C393   1.446       .  S
Cr129       O132   1.769       .  S
Cr130       O132   1.772       .  S
Cr131       O132   1.770       .  S
O133       Cr151   1.994       .  S
O133        C141   1.262       .  A
O134       Cr151   1.961   1_554  S
O134        C135   1.251       .  A
C135        O136   1.267       .  A
C135        C391   1.449       .  S
O136       Cr152   2.041       .  S
O137       Cr152   1.954       .  S
O137        C138   1.259       .  A
C138        O139   1.277       .  A
C138        C387   1.446       .  S
O139       Cr153   2.052   1_554  S
O140       Cr153   2.006       .  S
O140        C141   1.267       .  A
C141        C384   1.447       .  S
O142       Cr151   1.939       .  S
O142        C150   1.246       .  A
O143       Cr151   1.991       .  S
O143        C144   1.261       .  A
C144        O145   1.246   1_556  A
C144        C389   1.384       .  S
O145       Cr152   1.920       .  S
O146       Cr152   2.020       .  S
O146        C147   1.265   1_554  A
C147        O148   1.263       .  A
C147        C386   1.449       .  S
O148       Cr153   1.999       .  S
O149       Cr153   2.055       .  S
O149        C150   1.275       .  A
C150        C406   1.445       .  S
Cr151       O154   1.771   1_556  S
Cr152       O154   1.773       .  S
Cr153       O154   1.770   1_556  S
O155       Cr173   2.007       .  S
O155        C163   1.267       .  A
O156       Cr173   2.053       .  S
O156        C157   1.277       .  A
C157        O158   1.260       .  A
C157        C378   1.446       .  S
O158       Cr174   1.954       .  S
O159       Cr174   2.041       .  S
O159        C160   1.267       .  A
C160        O161   1.251       .  A
C160        C380   1.448       .  S
O161       Cr175   1.961       .  S
O162       Cr175   1.993       .  S
O162        C163   1.262       .  A
C163        C385   1.447       .  S
O164       Cr173   2.054   1_554  S
O164        C172   1.275       .  A
O165       Cr173   1.999       .  S
O165        C614   1.263       .  A
C166        O167   1.265       .  A
C166        O613   1.263       .  A
C166        C383   1.448       .  S
O167       Cr622   2.019       .  S
O168       Cr174   1.920       .  S
O168        C169   1.246       .  A
C169        O170   1.261       .  A
C169        C382   1.384       .  S
O170       Cr175   1.991       .  S
O171       Cr175   1.938   1_554  S
O171        C172   1.246       .  A
C172        C432   1.445       .  S
Cr173       O176   1.769       .  S
Cr174       O615   2.019       .  S
Cr174       O176   1.774       .  S
Cr175       O176   1.771       .  S
O177       Cr195   1.992       .  S
O177        C185   1.262       .  A
O178       Cr195   1.960       .  S
O178        C179   1.251       .  A
C179        O180   1.267       .  A
C179        C414   1.448       .  S
O180       Cr196   2.042       .  S
O181       Cr196   1.953       .  S
O181        C182   1.259       .  A
C182        O183   1.277       .  A
C182        C400   1.447       .  S
O183       Cr197   2.053       .  S
O184       Cr197   2.009       .  S
O184        C185   1.268       .  A
C185        C373   1.448       .  S
O186       Cr195   1.938       .  S
O186        C194   1.246       .  A
O187       Cr195   1.990       .  S
O187        C188   1.261       .  A
C188        O189   1.246       .  A
C188        C425   1.383       .  S
O189       Cr196   1.919       .  S
O190       Cr196   2.020       .  S
O190        C191   1.265       .  A
C191        O192   1.264       .  A
C191        C375   1.450       .  S
O192       Cr197   2.001       .  S
O193       Cr197   2.055       .  S
O193        C194   1.276       .  A
C194        C371   1.444       .  S
Cr195       O198   1.770       .  S
Cr196       O198   1.773       .  S
Cr197       O198   1.769       .  S
O199       Cr217   2.007       .  S
O199        C207   1.267       .  A
O200       Cr217   2.052       .  S
O200        C201   1.276       .  A
C201        O202   1.258       .  A
C201        C430   1.446       .  S
O202       Cr218   1.954       .  S
O203       Cr218   2.043       .  S
O203        C204   1.268       .  A
C204        O205   1.251       .  A
C204        C427   1.449       .  S
O205       Cr219   1.959       .  S
O206       Cr219   1.996       .  S
O206        C207   1.263       .  A
C207        C376   1.448       .  S
O208       Cr217   2.054       .  S
O208        C216   1.275       .  A
O209       Cr665   1.998       .  S
O209        C210   1.264   1_565  A
C210        O211   1.267   1_545  A
C210        C374   1.450       .  S
O211       Cr666   2.024       .  S
O212       Cr218   1.918       .  S
O212        C213   1.246       .  A
C213        O214   1.261       .  A
C213        C415   1.383       .  S
O214       Cr219   1.992       .  S
O215       Cr219   1.941       .  S
O215        C216   1.247       .  A
C216        C369   1.445       .  S
Cr217       O657   1.998       .  S
Cr217       O220   1.770       .  S
Cr218       O659   2.024       .  S
Cr218       O220   1.773       .  S
Cr219       O220   1.770       .  S
O221       Cr239   1.994       .  S
O221        C677   1.262   1_545  A
O222       Cr239   1.961       .  S
O222        C223   1.251       .  A
C223        O224   1.267       .  A
C223        C408   1.448       .  S
O224       Cr240   2.041       .  S
O225       Cr240   1.953   1_565  S
O225        C674   1.259       .  A
C226        O227   1.277       .  A
C226        O673   1.259       .  A
C226        C367   1.446       .  S
O227       Cr241   2.053       .  S
O228       Cr241   2.007       .  S
O228        C229   1.267       .  A
C229        O669   1.262       .  A
C229        C366   1.448       .  S
O230       Cr239   1.939       .  S
O230        C238   1.246       .  A
O231       Cr239   1.991       .  S
O231        C232   1.261       .  A
C232        O233   1.246       .  A
C232        C397   1.383       .  S
O233       Cr240   1.919       .  S
O234       Cr240   2.021   1_565  S
O234        C683   1.266       .  A
C235        O236   1.263       .  A
C235        O682   1.266       .  A
C235        C364   1.450       .  S
O236       Cr241   2.000       .  S
O237       Cr241   2.054       .  S
O237        C686   1.275       .  A
C238        O685   1.275   1_545  A
C238        C411   1.445       .  S
Cr239       O242   1.771       .  S
Cr240       O242   1.773       .  S
Cr241       O690   1.769       .  S
O242       Cr689   1.769   1_545  S
O243       Cr261   2.008       .  S
O243        C251   1.267   1_455  A
O244       Cr261   2.053       .  S
O244        C245   1.277       .  A
C245        O694   1.259       .  A
C245        C370   1.446       .  S
O246       Cr262   1.954   1_565  S
O246        C693   1.259       .  A
O247       Cr262   2.041       .  S
O247        C248   1.267       .  A
C248        O249   1.251       .  A
C248        C396   1.448       .  S
O249       Cr263   1.960       .  S
O250       Cr263   1.994       .  S
O250        C699   1.262   1_445  A
C251        O698   1.262   1_655  A
C251       C1259   1.448       .  S
O252       Cr261   2.054       .  S
O252        C708   1.275       .  A
O253       Cr261   2.000       .  S
O253        C254   1.263       .  A
C254        O703   1.265       .  A
C254        C365   1.450       .  S
O255       Cr262   2.021   1_565  S
O255        C702   1.265       .  A
O256       Cr262   1.920       .  S
O256        C257   1.246       .  A
C257        O258   1.261       .  A
C257        C410   1.384       .  S
O258       Cr263   1.992       .  S
O259       Cr263   1.939       .  S
O259        C260   1.246       .  A
C260        O700   1.275   1_545  A
C260        C377   1.444       .  S
Cr261       O712   1.769       .  S
Cr262       O264   1.773       .  S
Cr263       O264   1.771       .  S
O264       Cr709   1.769   1_545  S
O265       Cr283   1.995       .  S
O265        C273   1.262   1_455  A
O266       Cr283   1.959       .  S
O266        C267   1.251       .  A
C267        O268   1.268       .  A
C267        C445   1.449       .  S
O268       Cr284   2.043       .  S
O269       Cr284   1.954       .  S
O269        C270   1.259       .  A
C270        O271   1.276       .  A
C270        C372   1.447       .  S
O271       Cr285   2.051       .  S
O272       Cr285   2.008       .  S
O272        C273   1.267   1_455  A
C273       C1258   1.449       .  S
O274       Cr283   1.939       .  S
O274        C282   1.246       .  A
O275       Cr283   1.992       .  S
O275        C276   1.261       .  A
C276        O277   1.246       .  A
C276        C436   1.384       .  S
O277       Cr284   1.919       .  S
O278       Cr284   2.022       .  S
O278        C279   1.266       .  A
C279        O280   1.264       .  A
C279        C359   1.449       .  S
O280       Cr285   1.999       .  S
O281       Cr285   2.054       .  S
O281        C282   1.275       .  A
C282        C388   1.444       .  S
Cr283       O286   1.770       .  S
Cr284       O286   1.773       .  S
Cr285       O286   1.769       .  S
O287       Cr305   2.008       .  S
O287        C295   1.267       .  A
O288       Cr305   2.053       .  S
O288        C289   1.277       .  A
C289        O290   1.259       .  A
C289        C357   1.446       .  S
O290       Cr306   1.953       .  S
O291       Cr306   2.043       .  S
O291        C292   1.268       .  A
C292        O293   1.251       .  A
C292        C433   1.449       .  S
O293       Cr307   1.960       .  S
O294       Cr307   1.994       .  S
O294        C295   1.262       .  A
C295        C360   1.448       .  S
O296       Cr305   2.055       .  S
O296        C304   1.276       .  A
O297       Cr305   2.000       .  S
O297        C298   1.264       .  A
C298        O299   1.266       .  A
C298        C361   1.450       .  S
O299       Cr306   2.022       .  S
O300       Cr306   1.919       .  S
O300        C301   1.246       .  A
C301        O302   1.261       .  A
C301        C448   1.383       .  S
O302       Cr307   1.991       .  S
O303       Cr307   1.939       .  S
O303        C304   1.246       .  A
C304        C424   1.445       .  S
Cr305       O308   1.769       .  S
Cr306       O308   1.772       .  S
Cr307       O308   1.770       .  S
O309       Cr327   2.010       .  S
O309        C317   1.268       .  A
O310       Cr327   2.053       .  S
O310        C311   1.276       .  A
C311        O312   1.258       .  A
C311        C394   1.447       .  S
O312       Cr328   1.954       .  S
O313       Cr328   2.043       .  S
O313        C314   1.268       .  A
C314        O315   1.251       .  A
C314        C379   1.448       .  S
O315       Cr329   1.959       .  S
O316       Cr329   1.995       .  S
O316        C317   1.262       .  A
C317        C354   1.449       .  S
O318       Cr327   2.055   1_554  S
O318        C326   1.276       .  A
O319       Cr327   2.000       .  S
O319        C320   1.264       .  A
C320        O321   1.267       .  A
C320        C356   1.451       .  S
O321       Cr328   2.024       .  S
O322       Cr328   1.919       .  S
O322        C323   1.246       .  A
C323        O324   1.261       .  A
C323        C390   1.384       .  S
O324       Cr329   1.992       .  S
O325       Cr329   1.940   1_554  S
O325        C326   1.247       .  A
C326        C358   1.445       .  S
Cr327       O330   1.769       .  S
Cr328       O330   1.772       .  S
Cr329       O330   1.770       .  S
O331       Cr349   1.995       .  S
O331        C339   1.262       .  A
O332       Cr349   1.959   1_554  S
O332        C333   1.251       .  A
C333        O334   1.268       .  A
C333        C392   1.448       .  S
O334       Cr350   2.044       .  S
O335       Cr350   1.954       .  S
O335        C336   1.258       .  A
C336        O337   1.276       .  A
C336        C437   1.447       .  S
O337       Cr351   2.051   1_554  S
O338       Cr351   2.009       .  S
O338        C339   1.268       .  A
C339        C355   1.449       .  S
O340       Cr349   1.941       .  S
O340        C348   1.247       .  A
O341       Cr349   1.993       .  S
O341        C342   1.261   1_556  A
C342        O343   1.246       .  A
C342        C381   1.384   1_554  S
O343       Cr350   1.919       .  S
O344       Cr798   2.024       .  S
O344        C345   1.267   1_564  A
C345        O346   1.264   1_545  A
C345        C353   1.451       .  S
O346       Cr799   1.999       .  S
O347       Cr351   2.054       .  S
O347        C348   1.276       .  A
C348        C368   1.444       .  S
Cr349       O352   1.770   1_556  S
Cr350       O792   2.024       .  S
Cr350       O352   1.772       .  S
Cr351       O794   1.999       .  S
Cr351       O352   1.769   1_556  S
C353        C354   1.214       .  T
C355        C356   1.214       .  T
C357        C358   1.213       .  T
C359        C360   1.213       .  T
C361        C362   1.214       .  T
C362       C1169   1.449       .  S
C363       C1147   1.448       .  S
C363        C364   1.214       .  T
C365        C366   1.213       .  T
C367        C368   1.213       .  T
C369        C370   1.213       .  T
C371        C372   1.213       .  T
C373        C374   1.214       .  T
C375        C376   1.214       .  T
C377        C378   1.213       .  T
C379        C380   1.216       .  T
C381        C830   1.175       .  T
C382        C829   1.175   1_545  T
C383        C384   1.213       .  T
C385        C386   1.213       .  T
C387        C388   1.213       .  T
C389        C390   1.175       .  T
C391        C392   1.216       .  T
C393        C394   1.214       .  T
C395       C1012   1.448   1_455  S
C395        C396   1.216       .  T
C397        C398   1.175       .  T
C399        C400   1.213       .  T
C401        C402   1.214       .  T
C403        C404   1.214       .  T
C405        C406   1.214       .  T
C407        C408   1.216       .  T
C409        C410   1.176       .  T
C411        C412   1.213       .  T
C413       C1310   1.216       .  T
C414       C1309   1.216   1_455  T
C415       C1760   1.175       .  T
C416       C1759   1.175   1_545  T
C417        C418   1.214       .  T
C419        C420   1.213       .  T
C421        C422   1.214       .  T
C423        C424   1.213       .  T
C425       C1322   1.175       .  T
C426       C1321   1.175       .  T
C427       C1324   1.217   1_455  T
C428       C1323   1.217       .  T
C429        C488   1.444       .  S
C429        C430   1.213       .  T
C431        C432   1.213       .  T
C433        C434   1.216       .  T
C435        C436   1.176       .  T
C437        C438   1.213       .  T
C438        C466   1.445       .  S
C439        C440   1.214       .  T
C441        C442   1.214       .  T
C443        C444   1.213       .  T
C445        C446   1.217       .  T
C446        C899   1.449   1_455  S
C447        C448   1.175       .  T
O449       Cr467   1.995       .  S
O449        C905   1.262   1_565  A
O450       Cr467   1.960       .  S
O450        C451   1.251       .  A
C451        O452   1.268       .  A
C451       C1790   1.449       .  S
O452       Cr468   2.043       .  S
O453       Cr468   1.954   1_545  S
C454        O455   1.276       .  A
C454        C891   1.447       .  S
O455       Cr469   2.052       .  S
O456       Cr469   2.008       .  S
O456       C1353   1.267       .  A
C457        O897   1.262       .  A
C457       O1352   1.267       .  A
C457        C889   1.448       .  S
O458       Cr467   1.939       .  S
O459       Cr467   1.992       .  S
O459        C460   1.261       .  A
C460        O461   1.246       .  A
C460        C895   1.383       .  S
O461       Cr468   1.918       .  S
O462       Cr468   2.022   1_545  S
C463        O464   1.264       .  A
C463        C888   1.450       .  S
O464       Cr469   1.999       .  S
O465       Cr469   2.055       .  S
O465        C466   1.276       .  A
Cr467       O470   1.770       .  S
Cr468       O470   1.772       .  S
O471       Cr489   2.009       .  S
O471        C479   1.268       .  A
O472       Cr489   2.052       .  S
O472        C473   1.276       .  A
C473        C879   1.447       .  S
O474       Cr490   1.954   1_545  S
O475       Cr490   2.043       .  S
O475        C476   1.268       .  A
C476        O477   1.251       .  A
C476        C882   1.449       .  S
O477       Cr491   1.960       .  S
O478       Cr491   1.994       .  S
C479        C887   1.448       .  S
O480       Cr489   2.055       .  S
O480        C488   1.276       .  A
O481       Cr489   2.000       .  S
O481        C482   1.264       .  A
C482        C890   1.450       .  S
O483       Cr490   2.021   1_545  S
O484       Cr490   1.919       .  S
O484        C485   1.246       .  A
C485        O486   1.261       .  A
C485        C883   1.384       .  S
O486       Cr491   1.992       .  S
O487       Cr491   1.939       .  S
Cr490       O492   1.773       .  S
Cr491       O492   1.770       .  S
O493       Cr511   2.007       .  S
O493        C501   1.267       .  A
O494       Cr511   2.052       .  S
O494        C495   1.276       .  A
C495        O496   1.258       .  A
C495        C871   1.447       .  S
O496       Cr512   1.954       .  S
O497       Cr512   2.043       .  S
O497        C498   1.268       .  A
C498        O499   1.251       .  A
C498        C876   1.449       .  S
O499       Cr513   1.960       .  S
O500       Cr513   1.996       .  S
O500        C501   1.263       .  A
C501        C868   1.448       .  S
O502       Cr511   2.055       .  S
O502        C510   1.276       .  A
O503       Cr511   1.998       .  S
O503        C504   1.264       .  A
C504        O505   1.267       .  A
C504        C869   1.450       .  S
O505       Cr512   2.024       .  S
O506       Cr512   1.918       .  S
O506        C507   1.246       .  A
C507        O508   1.261       .  A
C507        C874   1.383       .  S
O508       Cr513   1.992       .  S
O509       Cr513   1.942       .  S
O509        C510   1.247       .  A
C510        C865   1.446       .  S
Cr511       O514   1.770       .  S
Cr512       O514   1.773       .  S
Cr513       O514   1.770       .  S
O515       Cr533   1.992       .  S
O515        C523   1.262       .  A
O516       Cr533   1.960       .  S
O516        C517   1.251       .  A
C517        O518   1.267       .  A
C517        C861   1.447       .  S
O518       Cr534   2.042       .  S
O519       Cr534   1.954       .  S
O519        C520   1.259       .  A
C520        O521   1.277       .  A
C520        C860   1.447       .  S
O521       Cr535   2.052       .  S
O522       Cr535   2.009       .  S
O522        C523   1.268       .  A
C523        C870   1.448       .  S
O524       Cr533   1.939       .  S
O524        C532   1.246       .  A
O525       Cr533   1.990       .  S
O525        C526   1.261       .  A
C526        O527   1.246       .  A
C526        C864   1.383       .  S
O527       Cr534   1.920       .  S
O528        C529   1.265       .  A
C529        C867   1.450   1_545  S
O530       Cr535   2.001       .  S
O531       Cr535   2.055       .  S
O531        C532   1.276       .  A
C532        C892   1.444       .  S
Cr533       O536   1.770       .  S
Cr534       O536   1.773       .  S
Cr535       O536   1.769       .  S
O537       Cr555   1.995       .  S
O537        C545   1.262       .  A
O538       Cr555   1.960       .  S
O538        C539   1.251       .  A
C539        O540   1.268       .  A
C539        C855   1.448       .  S
O540       Cr556   2.042       .  S
O541       Cr556   1.954       .  S
O541        C542   1.259       .  A
C542        O543   1.276       .  A
C542        C853   1.447       .  S
O543       Cr557   2.052       .  S
O544       Cr557   2.010       .  S
O544        C545   1.268       .  A
C545        C852   1.449       .  S
O546       Cr555   1.940       .  S
O546        C554   1.247       .  A
O547       Cr555   1.992       .  S
O547        C548   1.261       .  A
C548        O549   1.246       .  A
C548        C857   1.384       .  S
O549       Cr556   1.920       .  S
O550       Cr556   2.022       .  S
O550        C551   1.266       .  A
C551        O552   1.264       .  A
C551        C850   1.450       .  S
O552       Cr557   1.999       .  S
O553       Cr557   2.055       .  S
O553        C554   1.276       .  A
C554        C847   1.445       .  S
Cr555       O558   1.770       .  S
Cr556       O558   1.773       .  S
Cr557       O558   1.769       .  S
O559       Cr577   2.008       .  S
O559       C1463   1.267       .  A
O560       Cr577   2.054       .  S
O560        C561   1.277       .  A
C561        O562   1.258       .  A
C561        C866   1.447       .  S
O562       Cr578   1.953       .  S
O563       Cr578   2.042       .  S
O563        C564   1.268       .  A
C564        O565   1.251       .  A
C564       C1739   1.448       .  S
O565       Cr579   1.960       .  S
O566       Cr579   1.994       .  S
O566       C1463   1.262       .  A
C567       O1455   1.267       .  A
C567       O1462   1.262       .  A
C567        C849   1.448       .  S
O568       Cr577   2.056       .  S
O568        C576   1.276       .  A
O569       Cr577   2.000       .  S
O569        C570   1.264       .  A
C570        O571   1.266       .  A
C570        C851   1.451       .  S
O571       Cr578   2.023       .  S
O572       Cr578   1.919       .  S
O572        C573   1.246       .  A
C573        O574   1.261       .  A
C573        C846   1.383       .  S
O574       Cr579   1.991       .  S
O575       Cr579   1.940       .  S
O575        C576   1.247       .  A
C576        C841   1.446       .  S
Cr577       O580   1.769       .  S
Cr578       O580   1.772       .  S
Cr579       O580   1.770       .  S
O581       Cr599   1.994       .  S
O581        C589   1.262       .  A
O582       Cr599   1.961   1_554  S
O582        C583   1.251       .  A
C583        O584   1.267       .  A
C583        C839   1.449       .  S
O584       Cr600   2.041       .  S
O585       Cr600   1.954       .  S
O585        C586   1.259       .  A
C586        O587   1.277       .  A
C586        C835   1.446       .  S
O587       Cr601   2.052   1_554  S
O588       Cr601   2.006       .  S
O588        C589   1.267       .  A
C589        C832   1.447       .  S
O590       Cr599   1.939       .  S
O590        C598   1.246       .  A
O591       Cr599   1.991       .  S
O591        C592   1.261       .  A
C592        O593   1.246   1_556  A
C592        C837   1.384       .  S
O593       Cr600   1.920       .  S
O594       Cr600   2.020       .  S
O594        C595   1.265   1_554  A
C595        O596   1.263       .  A
C595        C834   1.449       .  S
O596       Cr601   1.999       .  S
O597       Cr601   2.055       .  S
O597        C598   1.275       .  A
C598        C854   1.445       .  S
Cr599       O602   1.771   1_556  S
Cr600       O602   1.773       .  S
Cr601       O602   1.770   1_556  S
O603       Cr621   2.007       .  S
O603        C611   1.267       .  A
O604       Cr621   2.053       .  S
O604        C605   1.277       .  A
C605        O606   1.260       .  A
C605        C826   1.446       .  S
O606       Cr622   1.954       .  S
O607       Cr622   2.041       .  S
O607        C608   1.267       .  A
C608        O609   1.251       .  A
C608        C828   1.448       .  S
O609       Cr623   1.961       .  S
O610       Cr623   1.993       .  S
O610        C611   1.262       .  A
C611        C833   1.447       .  S
O612       Cr621   2.054   1_554  S
O612        C620   1.275       .  A
O613       Cr621   1.999       .  S
C614        O615   1.265       .  A
C614        C831   1.448   1_545  S
O616       Cr622   1.920       .  S
O616        C617   1.246       .  A
C617        O618   1.261       .  A
C617        C830   1.384       .  S
O618       Cr623   1.991       .  S
O619       Cr623   1.938   1_554  S
O619        C620   1.246       .  A
C620        C880   1.445       .  S
Cr621       O624   1.769       .  S
Cr622       O624   1.774       .  S
Cr623       O624   1.771       .  S
O625       Cr643   1.992       .  S
O625        C633   1.262       .  A
O626       Cr643   1.960       .  S
O626        C627   1.251       .  A
C627        O628   1.267       .  A
C627        C862   1.448       .  S
O628       Cr644   2.042       .  S
O629       Cr644   1.953       .  S
O629        C630   1.259       .  A
C630        O631   1.277       .  A
C630        C848   1.447       .  S
O631       Cr645   2.053       .  S
O632       Cr645   2.009       .  S
O632        C633   1.268       .  A
C633        C821   1.448       .  S
O634       Cr643   1.938       .  S
O634        C642   1.246       .  A
O635       Cr643   1.990       .  S
O635        C636   1.261       .  A
C636        O637   1.246       .  A
C636        C873   1.383       .  S
O637       Cr644   1.919       .  S
O638       Cr644   2.020       .  S
O638        C639   1.265       .  A
C639        O640   1.264       .  A
C639        C823   1.450       .  S
O640       Cr645   2.001       .  S
O641       Cr645   2.055       .  S
O641        C642   1.276       .  A
C642        C819   1.444       .  S
Cr643       O646   1.770       .  S
Cr644       O646   1.773       .  S
Cr645       O646   1.769       .  S
O647       Cr665   2.007       .  S
O647        C655   1.267       .  A
O648       Cr665   2.052       .  S
O648        C649   1.276       .  A
C649        O650   1.258       .  A
C649        C878   1.446       .  S
O650       Cr666   1.954       .  S
O651       Cr666   2.043       .  S
O651        C652   1.268       .  A
C652        O653   1.251       .  A
C652        C875   1.449       .  S
O653       Cr667   1.959       .  S
O654       Cr667   1.996       .  S
O654        C655   1.263       .  A
C655        C824   1.448       .  S
O656       Cr665   2.054       .  S
O656        C664   1.275       .  A
O657        C658   1.264       .  A
C658        O659   1.267       .  A
C658        C822   1.450       .  S
O660       Cr666   1.918       .  S
O660        C661   1.246       .  A
C661        O662   1.261       .  A
C661        C863   1.383       .  S
O662       Cr667   1.992       .  S
O663       Cr667   1.941       .  S
O663        C664   1.247       .  A
C664        C817   1.445       .  S
Cr665       O668   1.770       .  S
Cr666       O668   1.773       .  S
Cr667       O668   1.770       .  S
O669       Cr687   1.994       .  S
O670       Cr687   1.961       .  S
O670        C671   1.251       .  A
C671        O672   1.267       .  A
C671        C856   1.448       .  S
O672       Cr688   2.041       .  S
O673       Cr688   1.953       .  S
C674        O675   1.277       .  A
C674        C815   1.446       .  S
O675       Cr689   2.053       .  S
O676       Cr689   2.007       .  S
O676        C677   1.267       .  A
C677        C814   1.448       .  S
O678       Cr687   1.939       .  S
O678        C686   1.246       .  A
O679       Cr687   1.991       .  S
O679        C680   1.261       .  A
C680        O681   1.246       .  A
C680        C845   1.383       .  S
O681       Cr688   1.919       .  S
O682       Cr688   2.022       .  S
C683        O684   1.263       .  A
C683        C812   1.450       .  S
O684       Cr689   2.000       .  S
O685       Cr689   2.054       .  S
C686        C859   1.445       .  S
Cr687       O690   1.771       .  S
Cr688       O690   1.773       .  S
O691       Cr709   2.008       .  S
O691        C699   1.267   1_455  A
O692       Cr709   2.053       .  S
O692        C693   1.277       .  A
C693        C818   1.446       .  S
O694       Cr710   1.954       .  S
O695       Cr710   2.041       .  S
O695        C696   1.267       .  A
C696        O697   1.251       .  A
C696        C844   1.448       .  S
O697       Cr711   1.960       .  S
O698       Cr711   1.994       .  S
C699       C1707   1.448       .  S
O700       Cr709   2.054       .  S
O701       Cr709   2.000       .  S
O701        C702   1.263       .  A
C702        C813   1.450       .  S
O703       Cr710   2.021       .  S
O704       Cr710   1.920       .  S
O704        C705   1.246       .  A
C705        O706   1.261       .  A
C705        C858   1.384       .  S
O706       Cr711   1.992       .  S
O707       Cr711   1.939       .  S
O707        C708   1.246       .  A
C708        C825   1.444       .  S
Cr710       O712   1.773       .  S
Cr711       O712   1.771       .  S
O713       Cr731   1.995       .  S
O713        C721   1.262   1_455  A
O714       Cr731   1.959       .  S
O714        C715   1.251       .  A
C715        O716   1.268       .  A
C715        C893   1.449       .  S
O716       Cr732   2.043       .  S
O717       Cr732   1.954       .  S
O717        C718   1.259       .  A
C718        O719   1.276       .  A
C718        C820   1.447       .  S
O719       Cr733   2.051       .  S
O720       Cr733   2.008       .  S
O720        C721   1.267   1_455  A
C721       C1706   1.449       .  S
O722       Cr731   1.939       .  S
O722        C730   1.246       .  A
O723       Cr731   1.992       .  S
O723        C724   1.261       .  A
C724        O725   1.246       .  A
C724        C884   1.384       .  S
O725       Cr732   1.919       .  S
O726       Cr732   2.022       .  S
O726        C727   1.266       .  A
C727        O728   1.264       .  A
C727        C807   1.449       .  S
O728       Cr733   1.999       .  S
O729       Cr733   2.054       .  S
O729        C730   1.275       .  A
C730        C836   1.444       .  S
Cr731       O734   1.770       .  S
Cr732       O734   1.773       .  S
Cr733       O734   1.769       .  S
O735       Cr753   2.008       .  S
O735        C743   1.267       .  A
O736       Cr753   2.053       .  S
O736        C737   1.277       .  A
C737        O738   1.259       .  A
C737        C805   1.446       .  S
O738       Cr754   1.953       .  S
O739       Cr754   2.043       .  S
O739        C740   1.268       .  A
C740        O741   1.251       .  A
C740        C881   1.449       .  S
O741       Cr755   1.960       .  S
O742       Cr755   1.994       .  S
O742        C743   1.262       .  A
C743        C808   1.448       .  S
O744       Cr753   2.055       .  S
O744        C752   1.276       .  A
O745       Cr753   2.000       .  S
O745        C746   1.264       .  A
C746        O747   1.266       .  A
C746        C809   1.450       .  S
O747       Cr754   2.022       .  S
O748       Cr754   1.919       .  S
O748        C749   1.246       .  A
C749        O750   1.261       .  A
C749        C896   1.383       .  S
O750       Cr755   1.991       .  S
O751       Cr755   1.939       .  S
O751        C752   1.246       .  A
C752        C872   1.445       .  S
Cr753       O756   1.769       .  S
Cr754       O756   1.772       .  S
Cr755       O756   1.770       .  S
O757       Cr775   2.010       .  S
O757        C765   1.268       .  A
O758       Cr775   2.053       .  S
O758        C759   1.276       .  A
C759        O760   1.258       .  A
C759        C842   1.447       .  S
O760       Cr776   1.954       .  S
O761       Cr776   2.043       .  S
O761        C762   1.268       .  A
C762        O763   1.251       .  A
C762        C827   1.448       .  S
O763       Cr777   1.959       .  S
O764       Cr777   1.995       .  S
O764        C765   1.262       .  A
C765        C802   1.449       .  S
O766       Cr775   2.055   1_554  S
O766        C774   1.276       .  A
O767       Cr775   2.000       .  S
O767        C768   1.264       .  A
C768        O769   1.267       .  A
C768        C804   1.451       .  S
O769       Cr776   2.024       .  S
O770       Cr776   1.919       .  S
O770        C771   1.246       .  A
C771        O772   1.261       .  A
C771        C838   1.384       .  S
O772       Cr777   1.992       .  S
O773       Cr777   1.940   1_554  S
O773        C774   1.247       .  A
C774        C806   1.445       .  S
Cr775       O778   1.769       .  S
Cr776       O778   1.772       .  S
Cr777       O778   1.770       .  S
O779       Cr797   1.995       .  S
O779        C787   1.262       .  A
O780       Cr797   1.959   1_554  S
O780        C781   1.251       .  A
C781        O782   1.268       .  A
C781        C840   1.448       .  S
O782       Cr798   2.044       .  S
O783       Cr798   1.954       .  S
O783        C784   1.258       .  A
C784        O785   1.276       .  A
C784        C885   1.447       .  S
O785       Cr799   2.051   1_554  S
O786       Cr799   2.009       .  S
O786        C787   1.268       .  A
C787        C803   1.449       .  S
O788       Cr797   1.941       .  S
O788        C796   1.247       .  A
O789       Cr797   1.993       .  S
O789        C790   1.261   1_556  A
C790        O791   1.246       .  A
C790        C829   1.384   1_554  S
O791       Cr798   1.919       .  S
O792        C793   1.267   1_554  A
C793        O794   1.264       .  A
C793        C801   1.451       .  S
O795       Cr799   2.054       .  S
O795        C796   1.276       .  A
C796        C816   1.444       .  S
Cr797       O800   1.770   1_556  S
Cr798       O800   1.772       .  S
Cr799       O800   1.769   1_556  S
C801        C802   1.214       .  T
C803        C804   1.214       .  T
C805        C806   1.213       .  T
C807        C808   1.213       .  T
C809        C810   1.214       .  T
C810       C1617   1.449       .  S
C811       C1595   1.448       .  S
C811        C812   1.214       .  T
C813        C814   1.213       .  T
C815        C816   1.213       .  T
C817        C818   1.213       .  T
C819        C820   1.213       .  T
C821        C822   1.214       .  T
C823        C824   1.214       .  T
C825        C826   1.213       .  T
C827        C828   1.216       .  T
C831        C832   1.213       .  T
C833        C834   1.213       .  T
C835        C836   1.213       .  T
C837        C838   1.175       .  T
C839        C840   1.216       .  T
C841        C842   1.214       .  T
C843       C1460   1.448   1_455  S
C843        C844   1.216       .  T
C845        C846   1.175       .  T
C847        C848   1.213       .  T
C849        C850   1.214       .  T
C851        C852   1.214       .  T
C853        C854   1.214       .  T
C855        C856   1.216       .  T
C857        C858   1.176       .  T
C859        C860   1.213       .  T
C861       C1758   1.216       .  T
C862       C1757   1.216   1_455  T
C863       C1312   1.175   1_565  T
C864       C1311   1.175       .  T
C865        C866   1.214       .  T
C867        C868   1.213       .  T
C869        C870   1.214       .  T
C871        C872   1.213       .  T
C873       C1770   1.175       .  T
C874       C1769   1.175       .  T
C875       C1772   1.217   1_455  T
C876       C1771   1.217       .  T
C877        C878   1.213       .  T
C879        C880   1.213       .  T
C881        C882   1.216       .  T
C883        C884   1.176       .  T
C885        C886   1.213       .  T
C887        C888   1.214       .  T
C889        C890   1.214       .  T
C891        C892   1.213       .  T
C893        C894   1.217       .  T
C894       C1347   1.449   1_455  S
C895        C896   1.175       .  T
O897       Cr915   1.995   1_455  S
O898       Cr915   1.960   1_455  S
O898        C899   1.251   1_455  A
C899        O900   1.268       .  A
O900       Cr916   2.043       .  S
O901       Cr916   1.954       .  S
O901       C1350   1.259       .  A
C902       O1349   1.259       .  A
C902        O903   1.276       .  A
C902       C1339   1.447       .  S
O903       Cr917   2.052       .  S
O904       Cr917   2.008   1_455  S
C905       C1337   1.448       .  S
O906       Cr915   1.939       .  S
O906       C1362   1.246       .  A
O907       Cr915   1.992       .  S
O907        C908   1.261       .  A
C908        O909   1.246       .  A
C908       C1343   1.383       .  S
O909       Cr916   1.918       .  S
O910       Cr916   2.022       .  S
O910       C1359   1.266       .  A
C911       O1358   1.266       .  A
C911        O912   1.264       .  A
C911       C1336   1.450       .  S
O912       Cr917   1.999       .  S
O913       Cr917   2.055       .  S
O913        C914   1.276   1_545  A
C914       O1354   1.246       .  A
C914       C1782   1.445       .  S
Cr915       O918   1.770       .  S
Cr916       O918   1.772       .  S
Cr917      O1366   1.769   1_545  S
O918      Cr1365   1.769       .  S
O919       Cr937   2.009       .  S
O919        C927   1.268       .  A
O920       Cr937   2.052       .  S
O920        C921   1.276       .  A
C921       O1370   1.259       .  A
C921       C1327   1.447       .  S
O922       Cr938   1.954       .  S
O922       C1369   1.259       .  A
O923       Cr938   2.043       .  S
O923        C924   1.268       .  A
C924        O925   1.251       .  A
C924       C1330   1.449       .  S
O925       Cr939   1.960       .  S
O926       Cr939   1.994       .  S
O926       C1375   1.262       .  A
C927       O1374   1.262   1_545  A
C927       C1335   1.448       .  S
O928       Cr937   2.055       .  S
O928        C936   1.276   1_545  A
O929       Cr937   2.000       .  S
O929        C930   1.264       .  A
C930       O1379   1.266       .  A
C930       C1338   1.450       .  S
O931       Cr938   2.021       .  S
O931       C1378   1.266       .  A
O932       Cr938   1.919       .  S
O932        C933   1.246       .  A
C933        O934   1.261       .  A
C933       C1331   1.384       .  S
O934       Cr939   1.992       .  S
O935       Cr939   1.939       .  S
O935       C1384   1.246       .  A
C936       O1383   1.246       .  A
C936       C1773   1.444       .  S
Cr937      O1388   1.769   1_545  S
Cr938       O940   1.773       .  S
Cr939       O940   1.770       .  S
O940      Cr1385   1.769       .  S
O941       Cr959   2.007       .  S
O941        C949   1.267       .  A
O942       Cr959   2.052       .  S
O942        C943   1.276       .  A
C943        O944   1.258       .  A
C943       C1319   1.447       .  S
O944       Cr960   1.954       .  S
O945       Cr960   2.043       .  S
O945        C946   1.268       .  A
C946        O947   1.251       .  A
C946       C1324   1.449       .  S
O947       Cr961   1.960       .  S
O948       Cr961   1.996       .  S
O948        C949   1.263       .  A
C949       C1316   1.448       .  S
O950       Cr959   2.055       .  S
O950        C958   1.276       .  A
O951       Cr959   1.998       .  S
O951        C952   1.264       .  A
C952        O953   1.267       .  A
C952       C1317   1.450       .  S
O953       Cr960   2.024       .  S
O954       Cr960   1.918       .  S
O954        C955   1.246       .  A
C955        O956   1.261       .  A
C955       C1322   1.383   1_655  S
O956       Cr961   1.992       .  S
O957       Cr961   1.942       .  S
O957        C958   1.247       .  A
C958       C1313   1.446       .  S
Cr959       O962   1.770       .  S
Cr960       O962   1.773       .  S
Cr961       O962   1.770       .  S
O963       Cr981   1.992       .  S
O963        C971   1.262       .  A
O964       Cr981   1.960       .  S
O964        C965   1.251       .  A
C965        O966   1.267       .  A
C965       C1309   1.447       .  S
O966       Cr982   2.042       .  S
O967       Cr982   1.954       .  S
O967        C968   1.259       .  A
C968        O969   1.277       .  A
C968       C1308   1.447       .  S
O969       Cr983   2.052       .  S
O970       Cr983   2.009       .  S
O970        C971   1.268       .  A
C971       C1318   1.448       .  S
O972       Cr981   1.939       .  S
O972        C980   1.246       .  A
O973       Cr981   1.990       .  S
O973        C974   1.261       .  A
C974        O975   1.246       .  A
C974       C1312   1.383   1_655  S
O975       Cr982   1.920       .  S
O976      Cr1430   2.020       .  S
O976        C977   1.265       .  A
C977       O1426   1.264       .  A
C977       C1315   1.450       .  S
O978       Cr983   2.001       .  S
O978       C1425   1.264       .  A
O979       Cr983   2.055       .  S
O979        C980   1.276       .  A
C980       C1340   1.444       .  S
Cr981       O984   1.770       .  S
Cr982      O1424   2.020       .  S
Cr982       O984   1.773       .  S
Cr983       O984   1.769       .  S
O985      Cr1003   1.995       .  S
O985        C993   1.262       .  A
O986      Cr1003   1.960       .  S
O986        C987   1.251       .  A
C987        O988   1.268       .  A
C987       C1303   1.448       .  S
O988      Cr1004   2.042       .  S
O989      Cr1004   1.954       .  S
O989        C990   1.259       .  A
C990        O991   1.276       .  A
C990       C1301   1.447       .  S
O991      Cr1005   2.052       .  S
O992      Cr1005   2.010       .  S
O992        C993   1.268       .  A
C993       C1300   1.449       .  S
O994      Cr1003   1.940       .  S
O994       C1002   1.247       .  A
O995      Cr1003   1.992       .  S
O995        C996   1.261       .  A
C996        O997   1.246       .  A
C996       C1305   1.384       .  S
O997      Cr1004   1.920       .  S
O998      Cr1004   2.022       .  S
O998        C999   1.266       .  A
C999       O1000   1.264       .  A
C999       C1298   1.450       .  S
O1000     Cr1005   1.999       .  S
O1001     Cr1005   2.055       .  S
O1001      C1002   1.276       .  A
C1002      C1295   1.445       .  S
Cr1003     O1006   1.770       .  S
Cr1004     O1006   1.773       .  S
Cr1005     O1006   1.769       .  S
O1007     Cr1025   2.008   1_455  S
O1008     Cr1025   2.054       .  S
O1008      C1009   1.277       .  A
C1009      O1010   1.258       .  A
C1009      C1314   1.447       .  S
O1010     Cr1026   1.953       .  S
O1011     Cr1026   2.042       .  S
O1011      C1012   1.268       .  A
C1012      O1013   1.251   1_655  A
O1013     Cr1027   1.960   1_455  S
O1014     Cr1027   1.994   1_455  S
C1015      C1297   1.448       .  S
O1016     Cr1025   2.056       .  S
O1016      C1024   1.276       .  A
O1017     Cr1025   2.000       .  S
O1017      C1018   1.264       .  A
C1018      O1019   1.266       .  A
C1018      C1299   1.451       .  S
O1019     Cr1026   2.023       .  S
O1020     Cr1026   1.919       .  S
O1020      C1021   1.246       .  A
C1021      O1022   1.261       .  A
C1021      C1294   1.383       .  S
O1022     Cr1027   1.991       .  S
O1023     Cr1027   1.940       .  S
O1023      C1024   1.247       .  A
C1024      C1289   1.446       .  S
Cr1025     O1028   1.769       .  S
Cr1026     O1028   1.772       .  S
Cr1027     O1028   1.770       .  S
O1029     Cr1047   1.994       .  S
O1029      C1037   1.262       .  A
O1030     Cr1047   1.961   1_554  S
O1030      C1031   1.251       .  A
C1031      O1032   1.267       .  A
C1031      C1287   1.449       .  S
O1032     Cr1048   2.041       .  S
O1033     Cr1048   1.954       .  S
O1033      C1034   1.259       .  A
C1034      O1035   1.277       .  A
C1034      C1283   1.446       .  S
O1035     Cr1049   2.052   1_554  S
O1036     Cr1049   2.006       .  S
O1036      C1037   1.267       .  A
C1037      C1280   1.447       .  S
O1038     Cr1047   1.939       .  S
O1038      C1046   1.246       .  A
O1039     Cr1047   1.991       .  S
O1039      C1040   1.261       .  A
C1040      O1041   1.246   1_556  A
C1040      C1285   1.384       .  S
O1041     Cr1048   1.920       .  S
O1042     Cr1048   2.020       .  S
O1042      C1043   1.265   1_554  A
C1043      O1044   1.263       .  A
C1043      C1282   1.449       .  S
O1044     Cr1049   1.999       .  S
O1045     Cr1049   2.055       .  S
O1045      C1046   1.275       .  A
C1046      C1302   1.445       .  S
Cr1047     O1050   1.771   1_556  S
Cr1048     O1050   1.773       .  S
Cr1049     O1050   1.770   1_556  S
O1051     Cr1069   2.007       .  S
O1051      C1059   1.267       .  A
O1052     Cr1069   2.053       .  S
O1052      C1053   1.277       .  A
C1053      O1054   1.260       .  A
C1053      C1274   1.446       .  S
O1054     Cr1070   1.954       .  S
O1055     Cr1070   2.041       .  S
O1055      C1056   1.267       .  A
C1056      O1057   1.251       .  A
C1056      C1276   1.448       .  S
O1057     Cr1071   1.961       .  S
O1058     Cr1071   1.993       .  S
O1058      C1059   1.262       .  A
C1059      C1281   1.447       .  S
O1060     Cr1069   2.054   1_554  S
O1060      C1068   1.275       .  A
O1061     Cr1069   1.999       .  S
O1061      C1510   1.263       .  A
C1062      O1509   1.263       .  A
C1062      O1063   1.265       .  A
C1062      C1279   1.448       .  S
O1063     Cr1518   2.019       .  S
O1064     Cr1070   1.920       .  S
O1064      C1065   1.246       .  A
C1065      O1066   1.261       .  A
C1065      C1278   1.384       .  S
O1066     Cr1071   1.991       .  S
O1067     Cr1071   1.938   1_554  S
O1067      C1068   1.246       .  A
C1068      C1328   1.445       .  S
Cr1069     O1072   1.769       .  S
Cr1070     O1511   2.019       .  S
Cr1070     O1072   1.774       .  S
Cr1071     O1072   1.771       .  S
O1073     Cr1091   1.992       .  S
O1073      C1081   1.262       .  A
O1074     Cr1091   1.960       .  S
O1074      C1075   1.251       .  A
C1075      O1076   1.267       .  A
C1075      C1310   1.448       .  S
O1076     Cr1092   2.042       .  S
O1077     Cr1092   1.953       .  S
O1077      C1078   1.259       .  A
C1078      O1079   1.277       .  A
C1078      C1296   1.447       .  S
O1079     Cr1093   2.053       .  S
O1080     Cr1093   2.009       .  S
O1080      C1081   1.268       .  A
C1081      C1269   1.448       .  S
O1082     Cr1091   1.938       .  S
O1082      C1090   1.246       .  A
O1083     Cr1091   1.990       .  S
O1083      C1084   1.261       .  A
C1084      O1085   1.246       .  A
C1084      C1321   1.383       .  S
O1085     Cr1092   1.919       .  S
O1086     Cr1092   2.020       .  S
O1086      C1087   1.265       .  A
C1087      O1088   1.264       .  A
C1087      C1271   1.450       .  S
O1088     Cr1093   2.001       .  S
O1089     Cr1093   2.055       .  S
O1089      C1090   1.276       .  A
C1090      C1267   1.444       .  S
Cr1091     O1094   1.770       .  S
Cr1092     O1094   1.773       .  S
Cr1093     O1094   1.769       .  S
O1095     Cr1113   2.007       .  S
O1095      C1103   1.267       .  A
O1096     Cr1113   2.052       .  S
O1096      C1097   1.276       .  A
C1097      O1098   1.258       .  A
C1097      C1326   1.446       .  S
O1098     Cr1114   1.954       .  S
O1099     Cr1114   2.043       .  S
O1099      C1100   1.268       .  A
C1100      O1101   1.251       .  A
C1100      C1323   1.449       .  S
O1101     Cr1115   1.959       .  S
O1102     Cr1115   1.996       .  S
O1102      C1103   1.263       .  A
C1103      C1272   1.448       .  S
O1104     Cr1113   2.054       .  S
O1104      C1112   1.275       .  A
O1105     Cr1561   1.998       .  S
O1105      C1106   1.264   1_565  A
C1106      O1107   1.267   1_545  A
C1106      C1270   1.450       .  S
O1107     Cr1562   2.024       .  S
O1108     Cr1114   1.918       .  S
O1108      C1109   1.246       .  A
C1109      O1110   1.261       .  A
C1109      C1311   1.383       .  S
O1110     Cr1115   1.992       .  S
O1111     Cr1115   1.941       .  S
O1111      C1112   1.247       .  A
C1112      C1265   1.445       .  S
Cr1113     O1553   1.998       .  S
Cr1113     O1116   1.770       .  S
Cr1114     O1555   2.024       .  S
Cr1114     O1116   1.773       .  S
Cr1115     O1116   1.770       .  S
O1117     Cr1135   1.994       .  S
O1117      C1573   1.262   1_545  A
O1118     Cr1135   1.961       .  S
O1118      C1119   1.251       .  A
C1119      O1120   1.267       .  A
C1119      C1304   1.448       .  S
O1120     Cr1136   2.041       .  S
O1121     Cr1136   1.953   1_565  S
O1121      C1570   1.259       .  A
C1122      O1569   1.259       .  A
C1122      O1123   1.277       .  A
C1122      C1263   1.446       .  S
O1123     Cr1137   2.053       .  S
O1124     Cr1137   2.007       .  S
O1124      C1125   1.267       .  A
C1125      O1565   1.262       .  A
C1125      C1262   1.448       .  S
O1126     Cr1135   1.939       .  S
O1126      C1134   1.246       .  A
O1127     Cr1135   1.991       .  S
O1127      C1128   1.261       .  A
C1128      O1129   1.246       .  A
C1128      C1293   1.383       .  S
O1129     Cr1136   1.919       .  S
O1130     Cr1136   2.021   1_565  S
O1130      C1579   1.266       .  A
C1131      O1578   1.266       .  A
C1131      O1132   1.263       .  A
C1131      C1260   1.450       .  S
O1132     Cr1137   2.000       .  S
O1133     Cr1137   2.054       .  S
O1133      C1582   1.275       .  A
C1134      O1581   1.275   1_545  A
C1134      C1307   1.445       .  S
Cr1135     O1138   1.771       .  S
Cr1136     O1138   1.773       .  S
Cr1137     O1586   1.769       .  S
O1138     Cr1585   1.769   1_545  S
O1139     Cr1157   2.008       .  S
O1139      C1147   1.267       .  A
O1140     Cr1157   2.053       .  S
O1140      C1141   1.277       .  A
C1141      O1590   1.259       .  A
C1141      C1266   1.446       .  S
O1142     Cr1158   1.954   1_565  S
O1142      C1589   1.259       .  A
O1143     Cr1158   2.041       .  S
O1143      C1144   1.267       .  A
C1144      O1145   1.251       .  A
C1144      C1292   1.448       .  S
O1145     Cr1159   1.960       .  S
O1146     Cr1159   1.994       .  S
O1146      C1595   1.262   1_545  A
C1147      O1594   1.262       .  A
O1148     Cr1157   2.054       .  S
O1148      C1604   1.275       .  A
O1149     Cr1157   2.000       .  S
O1149      C1150   1.263       .  A
C1150      O1599   1.265       .  A
C1150      C1261   1.450       .  S
O1151     Cr1158   2.021   1_565  S
O1151      C1598   1.265       .  A
O1152     Cr1158   1.920       .  S
O1152      C1153   1.246       .  A
C1153      O1154   1.261       .  A
C1153      C1306   1.384       .  S
O1154     Cr1159   1.992       .  S
O1155     Cr1159   1.939       .  S
O1155      C1156   1.246       .  A
C1156      O1596   1.275   1_545  A
C1156      C1273   1.444       .  S
Cr1157     O1608   1.769       .  S
Cr1158     O1160   1.773       .  S
Cr1159     O1160   1.771       .  S
O1160     Cr1605   1.769   1_545  S
O1161     Cr1179   1.995       .  S
O1161      C1169   1.262       .  A
O1162     Cr1179   1.959       .  S
O1162      C1163   1.251       .  A
C1163      O1164   1.268       .  A
C1163      C1341   1.449       .  S
O1164     Cr1180   2.043       .  S
O1165     Cr1180   1.954       .  S
O1165      C1166   1.259       .  A
C1166      O1167   1.276       .  A
C1166      C1268   1.447       .  S
O1167     Cr1181   2.051       .  S
O1168     Cr1181   2.008       .  S
O1168      C1169   1.267       .  A
O1170     Cr1179   1.939       .  S
O1170      C1178   1.246       .  A
O1171     Cr1179   1.992       .  S
O1171      C1172   1.261       .  A
C1172      O1173   1.246       .  A
C1172      C1332   1.384       .  S
O1173     Cr1180   1.919       .  S
O1174     Cr1180   2.022       .  S
O1174      C1175   1.266       .  A
C1175      O1176   1.264       .  A
C1175      C1255   1.449       .  S
O1176     Cr1181   1.999       .  S
O1177     Cr1181   2.054       .  S
O1177      C1178   1.275       .  A
C1178      C1284   1.444       .  S
Cr1179     O1182   1.770       .  S
Cr1180     O1182   1.773       .  S
Cr1181     O1182   1.769       .  S
O1183     Cr1201   2.008       .  S
O1183      C1191   1.267       .  A
O1184     Cr1201   2.053       .  S
O1184      C1185   1.277       .  A
C1185      O1186   1.259       .  A
C1185      C1253   1.446       .  S
O1186     Cr1202   1.953       .  S
O1187     Cr1202   2.043       .  S
O1187      C1188   1.268       .  A
C1188      O1189   1.251       .  A
C1188      C1329   1.449       .  S
O1189     Cr1203   1.960       .  S
O1190     Cr1203   1.994       .  S
O1190      C1191   1.262       .  A
C1191      C1256   1.448       .  S
O1192     Cr1201   2.055       .  S
O1192      C1200   1.276       .  A
O1193     Cr1201   2.000       .  S
O1193      C1194   1.264       .  A
C1194      O1195   1.266       .  A
C1194      C1257   1.450       .  S
O1195     Cr1202   2.022       .  S
O1196     Cr1202   1.919       .  S
O1196      C1197   1.246       .  A
C1197      O1198   1.261       .  A
C1197      C1344   1.383       .  S
O1198     Cr1203   1.991       .  S
O1199     Cr1203   1.939       .  S
O1199      C1200   1.246       .  A
C1200      C1320   1.445       .  S
Cr1201     O1204   1.769       .  S
Cr1202     O1204   1.772       .  S
Cr1203     O1204   1.770       .  S
O1205     Cr1223   2.010       .  S
O1205      C1213   1.268       .  A
O1206     Cr1223   2.053       .  S
O1206      C1207   1.276       .  A
C1207      O1208   1.258       .  A
C1207      C1290   1.447       .  S
O1208     Cr1224   1.954       .  S
O1209     Cr1224   2.043       .  S
O1209      C1210   1.268       .  A
C1210      O1211   1.251       .  A
C1210      C1275   1.448       .  S
O1211     Cr1225   1.959       .  S
O1212     Cr1225   1.995       .  S
O1212      C1213   1.262       .  A
C1213      C1250   1.449       .  S
O1214     Cr1223   2.055   1_554  S
O1214      C1222   1.276       .  A
O1215     Cr1223   2.000       .  S
O1215      C1216   1.264       .  A
C1216      O1217   1.267       .  A
C1216      C1252   1.451       .  S
O1217     Cr1224   2.024       .  S
O1218     Cr1224   1.919       .  S
O1218      C1219   1.246       .  A
C1219      O1220   1.261       .  A
C1219      C1286   1.384       .  S
O1220     Cr1225   1.992       .  S
O1221     Cr1225   1.940   1_554  S
O1221      C1222   1.247       .  A
C1222      C1254   1.445       .  S
Cr1223     O1226   1.769       .  S
Cr1224     O1226   1.772       .  S
Cr1225     O1226   1.770       .  S
O1227     Cr1245   1.995       .  S
O1227      C1235   1.262       .  A
O1228     Cr1245   1.959   1_554  S
O1228      C1229   1.251       .  A
C1229      O1230   1.268       .  A
C1229      C1288   1.448       .  S
O1230     Cr1246   2.044       .  S
O1231     Cr1246   1.954       .  S
O1231      C1232   1.258       .  A
C1232      O1233   1.276       .  A
C1232      C1333   1.447       .  S
O1233     Cr1247   2.051   1_554  S
O1234     Cr1247   2.009       .  S
O1234      C1235   1.268       .  A
C1235      C1251   1.449       .  S
O1236     Cr1245   1.941       .  S
O1236      C1244   1.247       .  A
O1237     Cr1245   1.993       .  S
O1237      C1238   1.261   1_556  A
C1238      O1239   1.246       .  A
C1238      C1277   1.384   1_554  S
O1239     Cr1246   1.919       .  S
O1240     Cr1694   2.024       .  S
O1240      C1241   1.267   1_564  A
C1241      O1242   1.264   1_545  A
C1241      C1249   1.451       .  S
O1242     Cr1695   1.999       .  S
O1243     Cr1247   2.054       .  S
O1243      C1244   1.276       .  A
C1244      C1264   1.444       .  S
Cr1245     O1248   1.770   1_556  S
Cr1246     O1688   2.024       .  S
Cr1246     O1248   1.772       .  S
Cr1247     O1690   1.999       .  S
Cr1247     O1248   1.769   1_556  S
C1249      C1250   1.214       .  T
C1251      C1252   1.214       .  T
C1253      C1254   1.213       .  T
C1255      C1256   1.213       .  T
C1257      C1258   1.214       .  T
C1259      C1260   1.214       .  T
C1261      C1262   1.213       .  T
C1263      C1264   1.213       .  T
C1265      C1266   1.213       .  T
C1267      C1268   1.213       .  T
C1269      C1270   1.214       .  T
C1271      C1272   1.214       .  T
C1273      C1274   1.213       .  T
C1275      C1276   1.216       .  T
C1277      C1726   1.175       .  T
C1278      C1725   1.175   1_545  T
C1279      C1280   1.213       .  T
C1281      C1282   1.213       .  T
C1283      C1284   1.213       .  T
C1285      C1286   1.175       .  T
C1287      C1288   1.216       .  T
C1289      C1290   1.214       .  T
C1291      C1292   1.216       .  T
C1293      C1294   1.175       .  T
C1295      C1296   1.213       .  T
C1297      C1298   1.214       .  T
C1299      C1300   1.214       .  T
C1301      C1302   1.214       .  T
C1303      C1304   1.216       .  T
C1305      C1306   1.176       .  T
C1307      C1308   1.213       .  T
C1313      C1314   1.214       .  T
C1315      C1316   1.213       .  T
C1317      C1318   1.214       .  T
C1319      C1320   1.213       .  T
C1325      C1384   1.444       .  S
C1325      C1326   1.213       .  T
C1327      C1328   1.213       .  T
C1329      C1330   1.216       .  T
C1331      C1332   1.176       .  T
C1333      C1334   1.213       .  T
C1334      C1362   1.445       .  S
C1335      C1336   1.214       .  T
C1337      C1338   1.214       .  T
C1339      C1340   1.213       .  T
C1341      C1342   1.217       .  T
C1343      C1344   1.175       .  T
O1345     Cr1363   1.995   1_455  S
O1346     Cr1363   1.960   1_455  S
O1346      C1347   1.251   1_455  A
C1347      O1348   1.268       .  A
O1348     Cr1364   2.043       .  S
O1349     Cr1364   1.954   1_545  S
C1350      O1351   1.276       .  A
C1350      C1787   1.447       .  S
O1351     Cr1365   2.052       .  S
O1352     Cr1365   2.008   1_455  S
C1353      C1785   1.448       .  S
O1354     Cr1363   1.939       .  S
O1355     Cr1363   1.992       .  S
O1355      C1356   1.261       .  A
C1356      O1357   1.246       .  A
C1356      C1791   1.383       .  S
O1357     Cr1364   1.918       .  S
O1358     Cr1364   2.022   1_545  S
C1359      O1360   1.264       .  A
C1359      C1784   1.450       .  S
O1360     Cr1365   1.999       .  S
O1361     Cr1365   2.055       .  S
O1361      C1362   1.276       .  A
Cr1363     O1366   1.770       .  S
Cr1364     O1366   1.772       .  S
O1367     Cr1385   2.009       .  S
O1367      C1375   1.268       .  A
O1368     Cr1385   2.052       .  S
O1368      C1369   1.276       .  A
C1369      C1775   1.447       .  S
O1370     Cr1386   1.954   1_545  S
O1371     Cr1386   2.043       .  S
O1371      C1372   1.268       .  A
C1372      O1373   1.251       .  A
C1372      C1778   1.449       .  S
O1373     Cr1387   1.960       .  S
O1374     Cr1387   1.994       .  S
C1375      C1783   1.448       .  S
O1376     Cr1385   2.055       .  S
O1376      C1384   1.276       .  A
O1377     Cr1385   2.000       .  S
O1377      C1378   1.264       .  A
C1378      C1786   1.450       .  S
O1379     Cr1386   2.021   1_545  S
O1380     Cr1386   1.919       .  S
O1380      C1381   1.246       .  A
C1381      O1382   1.261       .  A
C1381      C1779   1.384       .  S
O1382     Cr1387   1.992       .  S
O1383     Cr1387   1.939       .  S
Cr1386     O1388   1.773       .  S
Cr1387     O1388   1.770       .  S
O1389     Cr1407   2.007       .  S
O1389      C1397   1.267       .  A
O1390     Cr1407   2.052       .  S
O1390      C1391   1.276       .  A
C1391      O1392   1.258       .  A
C1391      C1767   1.447       .  S
O1392     Cr1408   1.954       .  S
O1393     Cr1408   2.043       .  S
O1393      C1394   1.268       .  A
C1394      O1395   1.251       .  A
C1394      C1772   1.449       .  S
O1395     Cr1409   1.960       .  S
O1396     Cr1409   1.996       .  S
O1396      C1397   1.263       .  A
C1397      C1764   1.448       .  S
O1398     Cr1407   2.055       .  S
O1398      C1406   1.276       .  A
O1399     Cr1407   1.998       .  S
O1399      C1400   1.264       .  A
C1400      O1401   1.267       .  A
C1400      C1765   1.450       .  S
O1401     Cr1408   2.024       .  S
O1402     Cr1408   1.918       .  S
O1402      C1403   1.246       .  A
C1403      O1404   1.261       .  A
C1403      C1770   1.383   1_655  S
O1404     Cr1409   1.992       .  S
O1405     Cr1409   1.942       .  S
O1405      C1406   1.247       .  A
C1406      C1761   1.446       .  S
Cr1407     O1410   1.770       .  S
Cr1408     O1410   1.773       .  S
Cr1409     O1410   1.770       .  S
O1411     Cr1429   1.992       .  S
O1411      C1419   1.262       .  A
O1412     Cr1429   1.960       .  S
O1412      C1413   1.251       .  A
C1413      O1414   1.267       .  A
C1413      C1757   1.447       .  S
O1414     Cr1430   2.042       .  S
O1415     Cr1430   1.954       .  S
O1415      C1416   1.259       .  A
C1416      O1417   1.277       .  A
C1416      C1756   1.447       .  S
O1417     Cr1431   2.052       .  S
O1418     Cr1431   2.009       .  S
O1418      C1419   1.268       .  A
C1419      C1766   1.448       .  S
O1420     Cr1429   1.939       .  S
O1420      C1428   1.246       .  A
O1421     Cr1429   1.990       .  S
O1421      C1422   1.261       .  A
C1422      O1423   1.246       .  A
C1422      C1760   1.383   1_655  S
O1423     Cr1430   1.920       .  S
O1424      C1425   1.265       .  A
C1425      C1763   1.450   1_545  S
O1426     Cr1431   2.001       .  S
O1427     Cr1431   2.055       .  S
O1427      C1428   1.276       .  A
C1428      C1788   1.444       .  S
Cr1429     O1432   1.770       .  S
Cr1430     O1432   1.773       .  S
Cr1431     O1432   1.769       .  S
O1433     Cr1451   1.995       .  S
O1433      C1441   1.262       .  A
O1434     Cr1451   1.960       .  S
O1434      C1435   1.251       .  A
C1435      O1436   1.268       .  A
C1435      C1751   1.448       .  S
O1436     Cr1452   2.042       .  S
O1437     Cr1452   1.954       .  S
O1437      C1438   1.259       .  A
C1438      O1439   1.276       .  A
C1438      C1749   1.447       .  S
O1439     Cr1453   2.052       .  S
O1440     Cr1453   2.010       .  S
O1440      C1441   1.268       .  A
C1441      C1748   1.449       .  S
O1442     Cr1451   1.940       .  S
O1442      C1450   1.247       .  A
O1443     Cr1451   1.992       .  S
O1443      C1444   1.261       .  A
C1444      O1445   1.246       .  A
C1444      C1753   1.384       .  S
O1445     Cr1452   1.920       .  S
O1446     Cr1452   2.022       .  S
O1446      C1447   1.266       .  A
C1447      O1448   1.264       .  A
C1447      C1746   1.450       .  S
O1448     Cr1453   1.999       .  S
O1449     Cr1453   2.055       .  S
O1449      C1450   1.276       .  A
C1450      C1743   1.445       .  S
Cr1451     O1454   1.770       .  S
Cr1452     O1454   1.773       .  S
Cr1453     O1454   1.769       .  S
O1455     Cr1473   2.008   1_455  S
O1456     Cr1473   2.054       .  S
O1456      C1457   1.277       .  A
C1457      O1458   1.258       .  A
C1457      C1762   1.447       .  S
O1458     Cr1474   1.953       .  S
O1459     Cr1474   2.042       .  S
O1459      C1460   1.268       .  A
C1460      O1461   1.251   1_655  A
O1461     Cr1475   1.960   1_455  S
O1462     Cr1475   1.994   1_455  S
C1463      C1745   1.448       .  S
O1464     Cr1473   2.056       .  S
O1464      C1472   1.276       .  A
O1465     Cr1473   2.000       .  S
O1465      C1466   1.264       .  A
C1466      O1467   1.266       .  A
C1466      C1747   1.451       .  S
O1467     Cr1474   2.023       .  S
O1468     Cr1474   1.919       .  S
O1468      C1469   1.246       .  A
C1469      O1470   1.261       .  A
C1469      C1742   1.383       .  S
O1470     Cr1475   1.991       .  S
O1471     Cr1475   1.940       .  S
O1471      C1472   1.247       .  A
C1472      C1737   1.446       .  S
Cr1473     O1476   1.769       .  S
Cr1474     O1476   1.772       .  S
Cr1475     O1476   1.770       .  S
O1477     Cr1495   1.994       .  S
O1477      C1485   1.262       .  A
O1478     Cr1495   1.961   1_554  S
O1478      C1479   1.251       .  A
C1479      O1480   1.267       .  A
C1479      C1735   1.449       .  S
O1480     Cr1496   2.041       .  S
O1481     Cr1496   1.954       .  S
O1481      C1482   1.259       .  A
C1482      O1483   1.277       .  A
C1482      C1731   1.446       .  S
O1483     Cr1497   2.052   1_554  S
O1484     Cr1497   2.006       .  S
O1484      C1485   1.267       .  A
C1485      C1728   1.447       .  S
O1486     Cr1495   1.939       .  S
O1486      C1494   1.246       .  A
O1487     Cr1495   1.991       .  S
O1487      C1488   1.261       .  A
C1488      O1489   1.246   1_556  A
C1488      C1733   1.384       .  S
O1489     Cr1496   1.920       .  S
O1490     Cr1496   2.020       .  S
O1490      C1491   1.265   1_554  A
C1491      O1492   1.263       .  A
C1491      C1730   1.449       .  S
O1492     Cr1497   1.999       .  S
O1493     Cr1497   2.055       .  S
O1493      C1494   1.275       .  A
C1494      C1750   1.445       .  S
Cr1495     O1498   1.771   1_556  S
Cr1496     O1498   1.773       .  S
Cr1497     O1498   1.770   1_556  S
O1499     Cr1517   2.007       .  S
O1499      C1507   1.267       .  A
O1500     Cr1517   2.053       .  S
O1500      C1501   1.277       .  A
C1501      O1502   1.260       .  A
C1501      C1722   1.446       .  S
O1502     Cr1518   1.954       .  S
O1503     Cr1518   2.041       .  S
O1503      C1504   1.267       .  A
C1504      O1505   1.251       .  A
C1504      C1724   1.448       .  S
O1505     Cr1519   1.961       .  S
O1506     Cr1519   1.993       .  S
O1506      C1507   1.262       .  A
C1507      C1729   1.447       .  S
O1508     Cr1517   2.054   1_554  S
O1508      C1516   1.275       .  A
O1509     Cr1517   1.999       .  S
C1510      O1511   1.265       .  A
C1510      C1727   1.448   1_545  S
O1512     Cr1518   1.920       .  S
O1512      C1513   1.246       .  A
C1513      O1514   1.261       .  A
C1513      C1726   1.384       .  S
O1514     Cr1519   1.991       .  S
O1515     Cr1519   1.938   1_554  S
O1515      C1516   1.246       .  A
C1516      C1776   1.445       .  S
Cr1517     O1520   1.769       .  S
Cr1518     O1520   1.774       .  S
Cr1519     O1520   1.771       .  S
O1521     Cr1539   1.992       .  S
O1521      C1529   1.262       .  A
O1522     Cr1539   1.960       .  S
O1522      C1523   1.251       .  A
C1523      O1524   1.267       .  A
C1523      C1758   1.448       .  S
O1524     Cr1540   2.042       .  S
O1525     Cr1540   1.953       .  S
O1525      C1526   1.259       .  A
C1526      O1527   1.277       .  A
C1526      C1744   1.447       .  S
O1527     Cr1541   2.053       .  S
O1528     Cr1541   2.009       .  S
O1528      C1529   1.268       .  A
C1529      C1717   1.448       .  S
O1530     Cr1539   1.938       .  S
O1530      C1538   1.246       .  A
O1531     Cr1539   1.990       .  S
O1531      C1532   1.261       .  A
C1532      O1533   1.246       .  A
C1532      C1769   1.383       .  S
O1533     Cr1540   1.919       .  S
O1534     Cr1540   2.020       .  S
O1534      C1535   1.265       .  A
C1535      O1536   1.264       .  A
C1535      C1719   1.450       .  S
O1536     Cr1541   2.001       .  S
O1537     Cr1541   2.055       .  S
O1537      C1538   1.276       .  A
C1538      C1715   1.444       .  S
Cr1539     O1542   1.770       .  S
Cr1540     O1542   1.773       .  S
Cr1541     O1542   1.769       .  S
O1543     Cr1561   2.007       .  S
O1543      C1551   1.267       .  A
O1544     Cr1561   2.052       .  S
O1544      C1545   1.276       .  A
C1545      O1546   1.258       .  A
C1545      C1774   1.446       .  S
O1546     Cr1562   1.954       .  S
O1547     Cr1562   2.043       .  S
O1547      C1548   1.268       .  A
C1548      O1549   1.251       .  A
C1548      C1771   1.449       .  S
O1549     Cr1563   1.959       .  S
O1550     Cr1563   1.996       .  S
O1550      C1551   1.263       .  A
C1551      C1720   1.448       .  S
O1552     Cr1561   2.054       .  S
O1552      C1560   1.275       .  A
O1553      C1554   1.264       .  A
C1554      O1555   1.267       .  A
C1554      C1718   1.450       .  S
O1556     Cr1562   1.918       .  S
O1556      C1557   1.246       .  A
C1557      O1558   1.261       .  A
C1557      C1759   1.383       .  S
O1558     Cr1563   1.992       .  S
O1559     Cr1563   1.941       .  S
O1559      C1560   1.247       .  A
C1560      C1713   1.445       .  S
Cr1561     O1564   1.770       .  S
Cr1562     O1564   1.773       .  S
Cr1563     O1564   1.770       .  S
O1565     Cr1583   1.994       .  S
O1566     Cr1583   1.961       .  S
O1566      C1567   1.251       .  A
C1567      O1568   1.267       .  A
C1567      C1752   1.448       .  S
O1568     Cr1584   2.041       .  S
O1569     Cr1584   1.953       .  S
C1570      O1571   1.277       .  A
C1570      C1711   1.446       .  S
O1571     Cr1585   2.053       .  S
O1572     Cr1585   2.007       .  S
O1572      C1573   1.267       .  A
C1573      C1710   1.448       .  S
O1574     Cr1583   1.939       .  S
O1574      C1582   1.246       .  A
O1575     Cr1583   1.991       .  S
O1575      C1576   1.261       .  A
C1576      O1577   1.246       .  A
C1576      C1741   1.383       .  S
O1577     Cr1584   1.919       .  S
O1578     Cr1584   2.022       .  S
C1579      O1580   1.263       .  A
C1579      C1708   1.450       .  S
O1580     Cr1585   2.000       .  S
O1581     Cr1585   2.054       .  S
C1582      C1755   1.445       .  S
Cr1583     O1586   1.771       .  S
Cr1584     O1586   1.773       .  S
O1587     Cr1605   2.008       .  S
O1587      C1595   1.267       .  A
O1588     Cr1605   2.053       .  S
O1588      C1589   1.277       .  A
C1589      C1714   1.446       .  S
O1590     Cr1606   1.954       .  S
O1591     Cr1606   2.041       .  S
O1591      C1592   1.267       .  A
C1592      O1593   1.251       .  A
C1592      C1740   1.448       .  S
O1593     Cr1607   1.960       .  S
O1594     Cr1607   1.994       .  S
O1596     Cr1605   2.054       .  S
O1597     Cr1605   2.000       .  S
O1597      C1598   1.263       .  A
C1598      C1709   1.450       .  S
O1599     Cr1606   2.021       .  S
O1600     Cr1606   1.920       .  S
O1600      C1601   1.246       .  A
C1601      O1602   1.261       .  A
C1601      C1754   1.384       .  S
O1602     Cr1607   1.992       .  S
O1603     Cr1607   1.939       .  S
O1603      C1604   1.246       .  A
C1604      C1721   1.444       .  S
Cr1606     O1608   1.773       .  S
Cr1607     O1608   1.771       .  S
O1609     Cr1627   1.995       .  S
O1609      C1617   1.262       .  A
O1610     Cr1627   1.959       .  S
O1610      C1611   1.251       .  A
C1611      O1612   1.268       .  A
C1611      C1789   1.449       .  S
O1612     Cr1628   2.043       .  S
O1613     Cr1628   1.954       .  S
O1613      C1614   1.259       .  A
C1614      O1615   1.276       .  A
C1614      C1716   1.447       .  S
O1615     Cr1629   2.051       .  S
O1616     Cr1629   2.008       .  S
O1616      C1617   1.267       .  A
O1618     Cr1627   1.939       .  S
O1618      C1626   1.246       .  A
O1619     Cr1627   1.992       .  S
O1619      C1620   1.261       .  A
C1620      O1621   1.246       .  A
C1620      C1780   1.384       .  S
O1621     Cr1628   1.919       .  S
O1622     Cr1628   2.022       .  S
O1622      C1623   1.266       .  A
C1623      O1624   1.264       .  A
C1623      C1703   1.449       .  S
O1624     Cr1629   1.999       .  S
O1625     Cr1629   2.054       .  S
O1625      C1626   1.275       .  A
C1626      C1732   1.444       .  S
Cr1627     O1630   1.770       .  S
Cr1628     O1630   1.773       .  S
Cr1629     O1630   1.769       .  S
O1631     Cr1649   2.008       .  S
O1631      C1639   1.267       .  A
O1632     Cr1649   2.053       .  S
O1632      C1633   1.277       .  A
C1633      O1634   1.259       .  A
C1633      C1701   1.446       .  S
O1634     Cr1650   1.953       .  S
O1635     Cr1650   2.043       .  S
O1635      C1636   1.268       .  A
C1636      O1637   1.251       .  A
C1636      C1777   1.449       .  S
O1637     Cr1651   1.960       .  S
O1638     Cr1651   1.994       .  S
O1638      C1639   1.262       .  A
C1639      C1704   1.448       .  S
O1640     Cr1649   2.055       .  S
O1640      C1648   1.276       .  A
O1641     Cr1649   2.000       .  S
O1641      C1642   1.264       .  A
C1642      O1643   1.266       .  A
C1642      C1705   1.450       .  S
O1643     Cr1650   2.022       .  S
O1644     Cr1650   1.919       .  S
O1644      C1645   1.246       .  A
C1645      O1646   1.261       .  A
C1645      C1792   1.383       .  S
O1646     Cr1651   1.991       .  S
O1647     Cr1651   1.939       .  S
O1647      C1648   1.246       .  A
C1648      C1768   1.445       .  S
Cr1649     O1652   1.769       .  S
Cr1650     O1652   1.772       .  S
Cr1651     O1652   1.770       .  S
O1653     Cr1671   2.010       .  S
O1653      C1661   1.268       .  A
O1654     Cr1671   2.053       .  S
O1654      C1655   1.276       .  A
C1655      O1656   1.258       .  A
C1655      C1738   1.447       .  S
O1656     Cr1672   1.954       .  S
O1657     Cr1672   2.043       .  S
O1657      C1658   1.268       .  A
C1658      O1659   1.251       .  A
C1658      C1723   1.448       .  S
O1659     Cr1673   1.959       .  S
O1660     Cr1673   1.995       .  S
O1660      C1661   1.262       .  A
C1661      C1698   1.449       .  S
O1662     Cr1671   2.055   1_554  S
O1662      C1670   1.276       .  A
O1663     Cr1671   2.000       .  S
O1663      C1664   1.264       .  A
C1664      O1665   1.267       .  A
C1664      C1700   1.451       .  S
O1665     Cr1672   2.024       .  S
O1666     Cr1672   1.919       .  S
O1666      C1667   1.246       .  A
C1667      O1668   1.261       .  A
C1667      C1734   1.384       .  S
O1668     Cr1673   1.992       .  S
O1669     Cr1673   1.940   1_554  S
O1669      C1670   1.247       .  A
C1670      C1702   1.445       .  S
Cr1671     O1674   1.769       .  S
Cr1672     O1674   1.772       .  S
Cr1673     O1674   1.770       .  S
O1675     Cr1693   1.995       .  S
O1675      C1683   1.262       .  A
O1676     Cr1693   1.959   1_554  S
O1676      C1677   1.251       .  A
C1677      O1678   1.268       .  A
C1677      C1736   1.448       .  S
O1678     Cr1694   2.044       .  S
O1679     Cr1694   1.954       .  S
O1679      C1680   1.258       .  A
C1680      O1681   1.276       .  A
C1680      C1781   1.447       .  S
O1681     Cr1695   2.051   1_554  S
O1682     Cr1695   2.009       .  S
O1682      C1683   1.268       .  A
C1683      C1699   1.449       .  S
O1684     Cr1693   1.941       .  S
O1684      C1692   1.247       .  A
O1685     Cr1693   1.993       .  S
O1685      C1686   1.261   1_556  A
C1686      O1687   1.246       .  A
C1686      C1725   1.384   1_554  S
O1687     Cr1694   1.919       .  S
O1688      C1689   1.267   1_554  A
C1689      O1690   1.264       .  A
C1689      C1697   1.451       .  S
O1691     Cr1695   2.054       .  S
O1691      C1692   1.276       .  A
C1692      C1712   1.444       .  S
Cr1693     O1696   1.770   1_556  S
Cr1694     O1696   1.772       .  S
Cr1695     O1696   1.769   1_556  S
C1697      C1698   1.214       .  T
C1699      C1700   1.214       .  T
C1701      C1702   1.213       .  T
C1703      C1704   1.213       .  T
C1705      C1706   1.214       .  T
C1707      C1708   1.214       .  T
C1709      C1710   1.213       .  T
C1711      C1712   1.213       .  T
C1713      C1714   1.213       .  T
C1715      C1716   1.213       .  T
C1717      C1718   1.214       .  T
C1719      C1720   1.214       .  T
C1721      C1722   1.213       .  T
C1723      C1724   1.216       .  T
C1727      C1728   1.213       .  T
C1729      C1730   1.213       .  T
C1731      C1732   1.213       .  T
C1733      C1734   1.175       .  T
C1735      C1736   1.216       .  T
C1737      C1738   1.214       .  T
C1739      C1740   1.216       .  T
C1741      C1742   1.175       .  T
C1743      C1744   1.213       .  T
C1745      C1746   1.214       .  T
C1747      C1748   1.214       .  T
C1749      C1750   1.214       .  T
C1751      C1752   1.216       .  T
C1753      C1754   1.176       .  T
C1755      C1756   1.213       .  T
C1761      C1762   1.214       .  T
C1763      C1764   1.213       .  T
C1765      C1766   1.214       .  T
C1767      C1768   1.213       .  T
C1773      C1774   1.213       .  T
C1775      C1776   1.213       .  T
C1777      C1778   1.216       .  T
C1779      C1780   1.176       .  T
C1781      C1782   1.213       .  T
C1783      C1784   1.214       .  T
C1785      C1786   1.214       .  T
C1787      C1788   1.213       .  T
C1789      C1790   1.217       .  T
C1791      C1792   1.175       .  T
