geometry optimzed in LAMMPS
_audit_creation_date              2020-11-30 
_audit_creation_method            'lammps2cif' 
_symmetry_space_group_name_H-M    'P1' 
_symmetry_Int_Tables_number       1 
_symmetry_cell_setting            triclinic 
loop_ 
_symmetry_equiv_pos_as_xyz 
  x,y,z 
_cell_length_a                    30.82966624 
_cell_length_b                    31.457634787182975 
_cell_length_c                    28.50506931822341 
_cell_angle_alpha                 89.90050298023885 
_cell_angle_beta                  89.96222965800554 
_cell_angle_gamma                 119.9995066206152 
loop_ 
_atom_site_label 
_atom_site_type_symbol 
_atom_site_fract_x 
_atom_site_fract_y 
_atom_site_fract_z 
_atom_site_charge 
O1          O  0.97246488  0.58891247  0.91101349    -0.57500
C2          C  0.92917991  0.68591850  0.95035516     0.75100
O3          O  0.04638632  0.69298321  0.02755358    -0.58700
C4          C  0.00650330  0.57957380  0.92264754     0.75100
C5          C  0.08539495  0.74130632  0.88264906     0.77500
Cd6        Cd  0.01220517  0.67007638  0.94655071     1.37500
O7          O  0.92741242  0.65088553  0.92688421    -0.57500
O8          O  0.04223998  0.70855274  0.86951778    -0.56300
C9          C  0.00719160  0.65871921  0.04684150     0.77400
O10         O  0.09478378  0.74146160  0.92601992    -0.58700
O11         O  0.97170656  0.71727372  0.96617146    -0.57100
O12         O  0.04468655  0.61363385  0.94268446    -0.57100
O13         O  0.97316627  0.62949259  0.01947076    -0.56300
O14         O  0.00865117  0.37260400  0.91502065    -0.57500
C15         C  0.03955235  0.26362649  0.96096879     0.75100
O16         O  0.93078815  0.27519525  0.03510478    -0.58700
C17         C  0.97614451  0.38394494  0.92724045     0.75100
C18         C  0.89233326  0.22253592  0.88687318     0.77500
Cd19       Cd  0.96506615  0.29108870  0.95294503     1.37500
O20         O  0.04677649  0.29926251  0.93470663    -0.57500
O21         O  0.93641280  0.25473389  0.87542356    -0.56300
C22         C  0.97308311  0.30601996  0.05253998     0.77400
O23         O  0.88127858  0.22092277  0.93007203    -0.58700
O24         O  0.99642188  0.23805017  0.97875259    -0.57100
O25         O  0.93841969  0.35156758  0.94946329    -0.57100
O26         O  0.00807067  0.33041617  0.02373015    -0.56300
O27         O  0.97519173  0.35052796  0.38302341    -0.57500
C28         C  0.95145944  0.21523588  0.34053504     0.75100
O29         O  0.05707847  0.32666268  0.26908359    -0.58700
C30         C  0.00941322  0.39484191  0.37729788     0.75100
C31         C  0.09961726  0.32008828  0.41638987     0.77500
Cd32       Cd  0.02493029  0.31567231  0.35118016     1.37500
O33         O  0.94564293  0.24125951  0.37116688    -0.57500
O34         O  0.05487849  0.30601112  0.42839423    -0.56300
C35         C  0.01913529  0.32676674  0.25158752     0.77400
O36         O  0.11034302  0.33188155  0.37351337    -0.58700
O37         O  0.99308749  0.23419708  0.31947119    -0.57100
O38         O  0.05128392  0.40184379  0.36251240    -0.57100
O39         O  0.98813166  0.32684095  0.28054011    -0.56300
O40         O  0.01010891  0.60223854  0.38375313    -0.57500
C41         C  0.05433366  0.74178975  0.34215601     0.75100
O42         O  0.93254178  0.63214882  0.26827546    -0.58700
C43         C  0.97590019  0.55944550  0.37270636     0.75100
C44         C  0.90293612  0.65155603  0.41576502     0.77500
Cd45       Cd  0.97050527  0.64541145  0.34864617     1.37500
O46         O  0.05779630  0.70751586  0.36208827    -0.57500
O47         O  0.94452124  0.65580804  0.42745668    -0.56300
C48         C  0.97282741  0.64052952  0.24791987     0.77400
O49         O  0.89206352  0.64435255  0.37244486    -0.58700
O50         O  0.01073805  0.73270771  0.33136713    -0.57100
O51         O  0.93771901  0.55639559  0.35278305    -0.57100
O52         O  0.00864904  0.64761768  0.27430693    -0.56300
O53         O  0.39837975  0.35889276  0.58626945    -0.57500
C54         C  0.30081312  0.22239537  0.62191079     0.75100
O55         O  0.28081296  0.32024800  0.69825190    -0.58700
C56         C  0.40714939  0.40228721  0.59273355     0.75100
C57         C  0.24186046  0.31871023  0.55053811     0.77500
Cd58       Cd  0.31309815  0.31849926  0.61775027     1.37500
O59         O  0.33641132  0.25678472  0.59923236    -0.57500
O60         O  0.27299400  0.30515858  0.54011872    -0.56300
C61         C  0.31962461  0.32553443  0.71912931     0.77400
O62         O  0.24288278  0.33166153  0.59288751    -0.58700
O63         O  0.26735222  0.23103430  0.63698785    -0.57100
O64         O  0.37109275  0.40693947  0.60792059    -0.57100
O65         O  0.35525909  0.33131631  0.69302333    -0.56300
O66         O  0.67291065  0.72622722  0.59107757    -0.57500
C67         C  0.60139943  0.57686293  0.59032209     0.75100
O68         O  0.76847702  0.65630001  0.59388869    -0.58700
C69         C  0.70939674  0.76063251  0.61300143     0.75100
C70         C  0.67934536  0.66392580  0.71440823     0.77500
Cd71       Cd  0.69330271  0.66398694  0.61398119     1.37500
O72         O  0.61084079  0.61880254  0.57608063    -0.57500
O73         O  0.65385613  0.67177570  0.68471907    -0.56300
C74         C  0.76806065  0.66545666  0.55046341     0.77400
O75         O  0.71147429  0.65377195  0.69774795    -0.58700
O76         O  0.63576517  0.57542456  0.61340151    -0.57100
O77         O  0.74196703  0.75122670  0.62906787    -0.57100
O78         O  0.73406161  0.67430820  0.53775243    -0.56300
O79         O  0.35863844  0.37325712  0.05656241    -0.57500
C80         C  0.21762454  0.26268451  0.01533839     0.75100
O81         O  0.34269485  0.27606473  0.94025920    -0.58700
C82         C  0.40327889  0.38510392  0.04601994     0.75100
C83         C  0.32596580  0.22014006  0.08357975     0.77500
Cd84       Cd  0.32103043  0.29089127  0.02090897     1.37500
O85         O  0.24676107  0.29664591  0.04296636    -0.57500
O86         O  0.31928516  0.25441728  0.09823574    -0.56300
C87         C  0.33101135  0.30537427  0.92075370     0.77400
O88         O  0.33052431  0.21849308  0.03948044    -0.58700
O89         O  0.23532068  0.23915107  0.99464222    -0.57100
O90         O  0.40926449  0.35236576  0.02634363    -0.57100
O91         O  0.31804001  0.32880877  0.94784448    -0.56300
O92         O  0.61221447  0.59469228  0.05583649    -0.57500
C93         C  0.75173028  0.68581960  0.01452855     0.75100
O94         O  0.64947889  0.70436415  0.93604398    -0.58700
C95         C  0.56805783  0.58352363  0.04450529     0.75100
C96         C  0.65450016  0.74557406  0.08236728     0.77500
Cd97       Cd  0.65387683  0.67439175  0.01733474     1.37500
O98         O  0.71446600  0.64692428  0.02988700    -0.57500
O99         O  0.65730505  0.70873652  0.09605712    -0.56300
C100        C  0.64971033  0.66847581  0.91585388     0.77400
O101        O  0.65144592  0.74975346  0.03837539    -0.58700
O102        O  0.74512407  0.72171971  0.00648211    -0.57100
O103        O  0.56306101  0.61600489  0.02266670    -0.57100
O104        O  0.64607238  0.63486647  0.94252967    -0.56300
O105        O  0.38023298  0.99518870  0.72375293    -0.57500
C106        C  0.29715525  0.04386620  0.67908434     0.75100
O107        O  0.26344975  0.94640691  0.60339746    -0.58700
C108        C  0.39267119  0.96373004  0.71258468     0.75100
C109        C  0.22642243  0.88037796  0.74670382     0.77500
Cd110      Cd  0.29932758  0.95408745  0.68321461     1.37500
O111        O  0.33767031  0.04349828  0.68485678    -0.57500
O112        O  0.25954152  0.92259795  0.76016693    -0.56300
C113        C  0.30160356  0.95185814  0.58139496     0.77400
O114        O  0.22633302  0.87211157  0.70316475    -0.58700
O115        O  0.25728993  0.00276479  0.68158022    -0.57100
O116        O  0.36024569  0.92635069  0.69039867    -0.57100
O117        O  0.33479953  0.95063820  0.60637635    -0.56300
O118        O  0.60763401  0.96692482  0.71262164    -0.57500
C119        C  0.69964700  0.93208721  0.66697210     0.75100
O120        O  0.72931499  0.02942706  0.59781883    -0.58700
C121        C  0.59350736  0.99800243  0.70584711     0.75100
C122        C  0.75664355  0.08511174  0.74744551     0.77500
Cd123      Cd  0.69026954  0.01676605  0.67680555     1.37500
O124        O  0.65805923  0.92886535  0.67688612    -0.57500
O125        O  0.72795032  0.03995975  0.75563079    -0.56300
C126        C  0.69113169  0.02250825  0.57503982     0.77400
O127        O  0.75558393  0.09896598  0.70577917    -0.58700
O128        O  0.73803705  0.97444727  0.66817541    -0.57100
O129        O  0.62520758  0.03866282  0.68754364    -0.57100
O130        O  0.65642273  0.02201005  0.59917319    -0.56300
O131        O  0.36754075  0.96692352  0.24038259    -0.57500
C132        C  0.23216747  0.91879433  0.28297625     0.75100
O133        O  0.30950719  0.02494176  0.36146691    -0.58700
C134        C  0.41178195  0.99942000  0.25110432     0.75100
C135        C  0.32763405  0.08032955  0.21760773     0.77500
Cd136      Cd  0.32688115  0.00663083  0.28044368     1.37500
O137        O  0.27013372  0.91951138  0.26507532    -0.57500
O138        O  0.30852068  0.03558188  0.20648132    -0.56300
C139        C  0.32891094  0.00292476  0.38245341     0.77400
O140        O  0.34610289  0.09140569  0.25853932    -0.58700
O141        O  0.23664206  0.95993290  0.29311374    -0.57100
O142        O  0.41671249  0.03682646  0.27266374    -0.57100
O143        O  0.35264795  0.98881240  0.35671484    -0.56300
O144        O  0.63102564  0.01118480  0.23988409    -0.57500
C145        C  0.77210706  0.04219255  0.28342807     0.75100
O146        O  0.66165857  0.93672040  0.35891453    -0.58700
C147        C  0.58630575  0.97797622  0.24831856     0.75100
C148        C  0.66596338  0.89321175  0.21286583     0.77500
Cd149      Cd  0.66954068  0.96712425  0.27652759     1.37500
O150        O  0.74321591  0.04655096  0.25457446    -0.57500
O151        O  0.68106060  0.93711951  0.20068641    -0.56300
C152        C  0.65923427  0.97249830  0.37687617     0.77400
O153        O  0.65268610  0.88300076  0.25551642    -0.58700
O154        O  0.75460917  0.00156572  0.30462777    -0.57100
O155        O  0.58064482  0.93892914  0.26702966    -0.57100
O156        O  0.65763679  0.00249231  0.34834549    -0.56300
C157        C  0.50322435  0.03510869  0.23853016    -0.26000
C158        C  0.45550492  0.99323747  0.24148591    -0.14100
C159        C  0.45103913  0.94628855  0.24031484     0.36500
C160        C  0.49457439  0.94254258  0.23897817    -0.25500
C161        C  0.54251109  0.98449816  0.23949838    -0.14700
C162        C  0.54655725  0.03137291  0.23751682     0.37600
N163        N  0.59389039  0.07598227  0.23698351    -0.89000
H164        H  0.50705387  0.07128733  0.23892755     0.18700
H165        H  0.49098961  0.90648366  0.23996244     0.18700
N166        N  0.40267729  0.90258834  0.24320595    -0.88000
H167        H  0.61390578  0.07610132  0.20732934     0.36100
H168        H  0.61375342  0.07749074  0.26723490     0.41200
H169        H  0.38808190  0.90167376  0.27656787     0.40800
H170        H  0.40603875  0.87120280  0.24075558     0.35700
C171        C  0.65053128  0.01938108  0.49826888    -0.26000
C172        C  0.68519000  0.01185002  0.52366676    -0.14100
C173        C  0.70813363  0.98805178  0.50082232     0.36500
C174        C  0.69666857  0.97341712  0.45391612    -0.25500
C175        C  0.66270064  0.98167591  0.42830930    -0.14700
C176        C  0.63846536  0.00421528  0.45132132     0.37600
N177        N  0.60066512  0.01128814  0.42897015    -0.89000
H178        H  0.63152735  0.03623319  0.51543235     0.18700
H179        H  0.71575146  0.95655634  0.43689083     0.18700
N180        N  0.74242782  0.97709929  0.52438173    -0.88000
H181        H  0.56834686  0.99376767  0.44968523     0.36100
H182        H  0.59004961  0.99341488  0.39674080     0.41200
H183        H  0.72455322  0.95516023  0.55362813     0.40800
H184        H  0.77340902  0.00998269  0.53529042     0.35700
C185        C  0.27527916  0.97436562  0.50692268    -0.26000
C186        C  0.30833044  0.96264429  0.52993341    -0.14100
C187        C  0.34912564  0.96560303  0.50421741     0.36500
C188        C  0.35519185  0.97937416  0.45650116    -0.25500
C189        C  0.32246265  0.99165104  0.43375503    -0.14700
C190        C  0.28174076  0.98868487  0.45938605     0.37600
N191        N  0.24637818  0.99922756  0.43700338    -0.89000
H192        H  0.24422527  0.97276914  0.52624203     0.18700
H193        H  0.38617525  0.98101440  0.43700269     0.18700
N194        N  0.38433393  0.95460265  0.52624943    -0.88000
H195        H  0.21953627  0.99668539  0.46102942     0.36100
H196        H  0.22705903  0.97193281  0.41194036     0.41200
H197        H  0.40597249  0.98335192  0.54928265     0.40800
H198        H  0.40938209  0.95457485  0.50152918     0.35700
C199        C  0.53360773  0.02577606  0.72742658    -0.26000
C200        C  0.54196188  0.98697335  0.71658202    -0.14100
C201        C  0.50062595  0.93905475  0.71187900     0.36500
C202        C  0.45187595  0.93178814  0.71455420    -0.25500
C203        C  0.44346691  0.97127645  0.72169226    -0.14700
C204        C  0.48482514  0.01839979  0.73078603     0.37600
N205        N  0.47752306  0.05915053  0.74090378    -0.89000
H206        H  0.56538685  0.06235543  0.73202022     0.18700
H207        H  0.42032068  0.89541205  0.70844073     0.18700
N208        N  0.50807833  0.89839524  0.70163959    -0.88000
H209        H  0.51190942  0.09151299  0.74455901     0.36100
H210        H  0.45975520  0.05239382  0.77356502     0.41200
H211        H  0.52369123  0.90396370  0.66804457     0.40800
H212        H  0.47379881  0.86560071  0.70024877     0.35700
C213        C  0.67747761  0.83147119  0.10150677    -0.26000
C214        C  0.65582944  0.78238806  0.11588289    -0.14100
C215        C  0.63715042  0.76964391  0.16215642     0.36500
C216        C  0.64109421  0.80638841  0.19302306    -0.25500
C217        C  0.66348237  0.85581446  0.17894705    -0.14700
C218        C  0.68226808  0.86839044  0.13247783     0.37600
N219        N  0.70668849  0.91856637  0.11676064    -0.89000
H220        H  0.69214565  0.84137851  0.06615654     0.18700
H221        H  0.62633860  0.79620871  0.22830223     0.18700
N222        N  0.61364189  0.71939500  0.17752916    -0.88000
H223        H  0.71654564  0.92113301  0.08132950     0.36100
H224        H  0.74028244  0.93770449  0.13532375     0.41200
H225        H  0.58105026  0.69940810  0.15773952     0.40800
H226        H  0.60231942  0.71626538  0.21256300     0.35700
C227        C  0.53504932  0.49456362  0.05525997    -0.26000
C228        C  0.52540643  0.53365121  0.05332866    -0.14100
C229        C  0.47545406  0.52367197  0.05522540     0.36500
C230        C  0.43617584  0.47461794  0.05577738    -0.25500
C231        C  0.44581313  0.43543920  0.05352707    -0.14700
C232        C  0.49598260  0.44561925  0.05453910     0.37600
N233        N  0.50742293  0.40655183  0.05396969    -0.89000
H234        H  0.57339921  0.50210758  0.05422802     0.18700
H235        H  0.39781290  0.46704929  0.05557792     0.18700
N236        N  0.46475827  0.56321202  0.05561099    -0.88000
H237        H  0.54547304  0.42020282  0.06063321     0.36100
H238        H  0.50142717  0.39272376  0.01980942     0.48400
H239        H  0.47929335  0.58277697  0.08672838     0.40800
H240        H  0.42609914  0.54956853  0.05657295     0.35700
C241        C  0.32140694  0.10558996  0.13585380    -0.26000
C242        C  0.32840300  0.11714307  0.18391334    -0.14100
C243        C  0.33578938  0.16323307  0.19850540     0.36500
C244        C  0.33547251  0.19609928  0.16494774    -0.25500
C245        C  0.32810190  0.18439185  0.11685706    -0.14700
C246        C  0.32154971  0.13843929  0.10243253     0.37600
N247        N  0.31409176  0.12342474  0.05431875    -0.89000
H248        H  0.31599985  0.07058811  0.12388176     0.18700
H249        H  0.34076584  0.23113532  0.17662769     0.18700
N250        N  0.34279863  0.17636746  0.24732029    -0.88000
H251        H  0.34560162  0.14797622  0.03503001     0.36100
H252        H  0.28253971  0.12400395  0.04166457     0.41200
H253        H  0.30937936  0.15280871  0.26472593     0.40800
H254        H  0.34887920  0.21192409  0.25201299     0.35700
C255        C  0.66878041  0.81133980  0.61112294    -0.26000
C256        C  0.71097225  0.80758599  0.62290474    -0.14100
C257        C  0.75053292  0.84618587  0.64833068     0.36500
C258        C  0.74627059  0.88685371  0.66190640    -0.25500
C259        C  0.70292367  0.88902796  0.65207784    -0.14700
C260        C  0.66432564  0.85156191  0.62532738     0.37600
N261        N  0.62103220  0.85477991  0.61205760    -0.89000
H262        H  0.63838974  0.78219451  0.59153965     0.18700
H263        H  0.77628436  0.91631485  0.68157858     0.18700
N264        N  0.79444557  0.84391264  0.66109853    -0.88000
H265        H  0.59583511  0.82383456  0.59298737     0.36100
H266        H  0.63311104  0.88482767  0.58941063     0.41200
H267        H  0.78409161  0.81784118  0.68788675     0.40800
H268        H  0.82152783  0.87718412  0.67567111     0.35700
C269        C  0.68526882  0.64009250  0.79627998    -0.26000
C270        C  0.67127402  0.66597929  0.76571722    -0.14100
C271        C  0.64983280  0.69301884  0.78504560     0.36500
C272        C  0.64302669  0.69321258  0.83376579    -0.25500
C273        C  0.65601321  0.66626342  0.86419845    -0.14700
C274        C  0.67762475  0.63949998  0.84469809     0.37600
N275        N  0.69385124  0.61244513  0.87303464    -0.89000
H276        H  0.70191188  0.61945603  0.78240773     0.18700
H277        H  0.62712300  0.71442002  0.84786770     0.18700
N278        N  0.63564351  0.72162597  0.75652505    -0.88000
H279        H  0.66288917  0.58401505  0.89004026     0.36100
H280        H  0.71956130  0.63620510  0.89773477     0.41200
H281        H  0.60677082  0.69820003  0.73404027     0.40800
H282        H  0.66661483  0.74650213  0.73675619     0.35700
C283        C  0.34023957  0.12722701  0.64469981    -0.26000
C284        C  0.29712917  0.08946005  0.66616219    -0.14100
C285        C  0.25443081  0.09470006  0.67104393     0.36500
C286        C  0.25631010  0.13786575  0.65492549    -0.25500
C287        C  0.29948782  0.17568410  0.63330966    -0.14700
C288        C  0.34191779  0.16978574  0.62810074     0.37600
N289        N  0.38768188  0.20638536  0.60692624    -0.89000
H290        H  0.37302505  0.12341966  0.63995625     0.18700
H291        H  0.22374394  0.14201690  0.65958059     0.18700
N292        N  0.20976199  0.05699675  0.69326815    -0.88000
H293        H  0.40194737  0.23879885  0.62631082     0.36100
H294        H  0.38032526  0.21252654  0.57254439     0.41200
H295        H  0.19288344  0.02748602  0.67000052     0.40800
H296        H  0.18387616  0.06885456  0.69817394     0.35700
C297        C  0.35855966  0.31122630  0.78957937    -0.26000
C298        C  0.32340501  0.32290891  0.77102186    -0.14100
C299        C  0.29180237  0.32970540  0.80211567     0.36500
C300        C  0.29560807  0.32405116  0.85065945    -0.25500
C301        C  0.32992514  0.31125879  0.86910131    -0.14700
C302        C  0.36184547  0.30483510  0.83811056     0.37600
N303        N  0.39821645  0.29302804  0.85583105    -0.89000
H304        H  0.38293690  0.30583823  0.76596321     0.18700
H305        H  0.27096488  0.32902759  0.87430380     0.18700
N306        N  0.25608059  0.34243062  0.78450066    -0.88000
H307        H  0.42096570  0.29295640  0.82864803     0.36100
H308        H  0.37873090  0.25704372  0.86856157     0.41200
H309        H  0.27619994  0.37733118  0.76936937     0.40800
H310        H  0.23517841  0.34528514  0.81196027     0.35700
C311        C  0.46168891  0.49057376  0.57310888    -0.26000
C312        C  0.45744871  0.44540158  0.58517662    -0.14100
C313        C  0.50125793  0.44292101  0.59369652     0.36500
C314        C  0.54806189  0.48612253  0.59226150    -0.25500
C315        C  0.55225271  0.53184940  0.58270885    -0.14700
C316        C  0.50863497  0.53377705  0.57108591     0.37600
N317        N  0.51166924  0.57963680  0.55926314    -0.89000
H318        H  0.42806687  0.49229294  0.56602289     0.18700
H319        H  0.58135672  0.48426027  0.60060155     0.18700
N320        N  0.49807266  0.39710531  0.60614738    -0.88000
H321        H  0.47593457  0.57484412  0.55397517     0.36100
H322        H  0.53024898  0.59104538  0.52703638     0.41200
H323        H  0.48052874  0.38653099  0.63890422     0.40800
H324        H  0.53380566  0.40155316  0.61035158     0.35700
C325        C  0.14384564  0.78737786  0.32048634    -0.26000
C326        C  0.09935025  0.78822806  0.32838257    -0.14100
C327        C  0.09804214  0.83171219  0.31907349     0.36500
C328        C  0.14160542  0.87347771  0.30294646    -0.25500
C329        C  0.18605282  0.87251474  0.29492451    -0.14700
C330        C  0.18716217  0.82886447  0.30389171     0.37600
N331        N  0.23244203  0.82696012  0.29739633    -0.89000
H332        H  0.14477733  0.75387122  0.32685750     0.18700
H333        H  0.14085713  0.90709081  0.29669024     0.18700
N334        N  0.05314876  0.83391822  0.32703380    -0.88000
H335        H  0.22621965  0.79162531  0.30397431     0.36100
H336        H  0.25812453  0.84973750  0.32264188     0.41200
H337        H  0.02779815  0.81358281  0.30055644     0.40800
H338        H  0.06019073  0.86986885  0.32301904     0.35700
C339        C  0.83648537  0.67163506  0.43616409    -0.26000
C340        C  0.86921007  0.65543944  0.45084851    -0.14100
C341        C  0.86997624  0.64429819  0.49886012     0.36500
C342        C  0.83760978  0.64898332  0.53074605    -0.25500
C343        C  0.80433896  0.66465199  0.51601995    -0.14700
C344        C  0.80483551  0.67727262  0.46810880     0.37600
N345        N  0.77348094  0.69602102  0.45181055    -0.89000
H346        H  0.83638063  0.68104142  0.39959309     0.18700
H347        H  0.83776516  0.63938905  0.56723435     0.18700
N348        N  0.90279944  0.62723958  0.51504126    -0.88000
H349        H  0.77723938  0.70200649  0.41558260     0.36100
H350        H  0.78650727  0.73043880  0.46725867     0.41200
H351        H  0.89105284  0.59305689  0.49958756     0.40800
H352        H  0.89933517  0.62136943  0.55128789     0.35700
C353        C  0.89735287  0.16052850  0.27852003    -0.26000
C354        C  0.91022767  0.16703036  0.32629798    -0.14100
C355        C  0.88072518  0.12958105  0.35869662     0.36500
C356        C  0.83696449  0.08827941  0.34290880    -0.25500
C357        C  0.82203012  0.08339547  0.29566094    -0.14700
C358        C  0.85348140  0.11942508  0.26292709     0.37600
N359        N  0.84210460  0.11529237  0.21385859    -0.89000
H360        H  0.92031525  0.18889034  0.25336610     0.18700
H361        H  0.81347714  0.06052434  0.36830678     0.18700
N362        N  0.89371736  0.13208819  0.40748315    -0.88000
H363        H  0.80891648  0.11602709  0.20904193     0.36100
H364        H  0.83698224  0.08166368  0.20195639     0.41200
H365        H  0.92817031  0.16315368  0.41466296     0.40800
H366        H  0.89841977  0.10202600  0.41471814     0.35700
C367        C  0.95106472  0.42793480  0.38048295    -0.26000
C368        C  0.00014034  0.43628518  0.38431980    -0.14100
C369        C  0.03996395  0.48476208  0.38956570     0.36500
C370        C  0.03058286  0.52394903  0.38790065    -0.25500
C371        C  0.98203430  0.51603750  0.38046600    -0.14700
C372        C  0.94152789  0.46723203  0.37796021     0.37600
N373        N  0.89100801  0.45746948  0.37243956    -0.89000
H374        H  0.92021732  0.39070991  0.37674246     0.18700
H375        H  0.06203596  0.56098768  0.39060572     0.18700
N376        N  0.09021449  0.49454541  0.39601927    -0.88000
H377        H  0.86561303  0.41991879  0.37590609     0.36100
H378        H  0.88732081  0.46652799  0.33794111     0.41200
H379        H  0.10362047  0.51346608  0.42762991     0.40800
H380        H  0.11227238  0.51755590  0.36881185     0.35700
C381        C  0.17551206  0.31393547  0.43505543    -0.26000
C382        C  0.13697266  0.32184085  0.45069922    -0.14100
C383        C  0.13385702  0.32999924  0.49905035     0.36500
C384        C  0.16833053  0.32865777  0.53062231    -0.25500
C385        C  0.20623616  0.31947049  0.51528518    -0.14700
C386        C  0.20978244  0.31212267  0.46661601     0.37600
N387        N  0.24817571  0.30311395  0.44905091    -0.89000
H388        H  0.17811029  0.30778809  0.39802524     0.18700
H389        H  0.16545633  0.33484811  0.56757989     0.18700
N390        N  0.09615572  0.34035603  0.51595089    -0.88000
H391        H  0.24759028  0.30191687  0.41239033     0.36100
H392        H  0.23944712  0.26806579  0.46030985     0.41200
H393        H  0.10361582  0.37389998  0.50139956     0.40800
H394        H  0.09865781  0.34509221  0.55233751     0.35700
C395        C  0.03333518  0.33086324  0.11841384    -0.26000
C396        C  0.98355478  0.31268213  0.10366664    -0.14100
C397        C  0.94599880  0.30069952  0.13768706     0.36500
C398        C  0.95909885  0.30680318  0.18553510    -0.25500
C399        C  0.00882828  0.32401245  0.20033771    -0.14700
C400        C  0.04631271  0.33602393  0.16614574     0.37600
N401        N  0.09744331  0.35374437  0.17964988    -0.89000
H402        H  0.06237442  0.33983739  0.09246068     0.18700
H403        H  0.92992253  0.29708861  0.21150476     0.18700
N404        N  0.89491967  0.28256410  0.12374158    -0.88000
H405        H  0.12075439  0.36447120  0.15014592     0.36100
H406        H  0.09928751  0.32423002  0.19435870     0.41200
H407        H  0.89357916  0.31070502  0.10542241     0.40800
H408        H  0.87185931  0.27487635  0.15316324     0.35700
C409        C  0.09225775  0.25757818  0.02201596    -0.26000
C410        C  0.08057846  0.25502232  0.97411727    -0.14100
C411        C  0.11058689  0.24842795  0.94082325     0.36500
C412        C  0.15352379  0.24800337  0.95615782    -0.25500
C413        C  0.16718224  0.25394355  0.00381094    -0.14700
C414        C  0.13508998  0.25703047  0.03737173     0.37600
N415        N  0.14403000  0.25881665  0.08700555    -0.89000
H416        H  0.06869460  0.26171055  0.04774995     0.18700
H417        H  0.17770162  0.24525359  0.93016524     0.18700
N418        N  0.09915775  0.24259044  0.89151588    -0.88000
H419        H  0.15377421  0.29394926  0.09873085     0.36100
H420        H  0.17347329  0.25269194  0.09499446     0.41200
H421        H  0.06550026  0.24168339  0.88445544     0.40800
H422        H  0.09367363  0.20825046  0.88161020     0.35700
C423        C  0.81634874  0.14283707  0.86570722    -0.26000
C424        C  0.85621655  0.18846084  0.85138415    -0.14100
C425        C  0.86190429  0.20047006  0.80304608     0.36500
C426        C  0.82892557  0.16612785  0.77028899    -0.25500
C427        C  0.78994643  0.11985243  0.78427364    -0.14700
C428        C  0.78339513  0.10825613  0.83286202     0.37600
N429        N  0.74312637  0.06187185  0.84900917    -0.89000
H430        H  0.81157916  0.13356225  0.90269396     0.18700
H431        H  0.83396553  0.17563868  0.73336778     0.18700
N432        N  0.90085715  0.24774009  0.78722761    -0.88000
H433        H  0.74138905  0.06089983  0.88567513     0.36100
H434        H  0.75162680  0.03486865  0.83919231     0.41200
H435        H  0.89298986  0.27408547  0.80063346     0.40800
H436        H  0.90043380  0.25042940  0.75068492     0.35700
C437        C  0.88851963  0.72726899  0.99037699    -0.26000
C438        C  0.88355541  0.68808388  0.96264317    -0.14100
C439        C  0.83508803  0.64847892  0.95314046     0.36500
C440        C  0.79339171  0.64797328  0.97337085    -0.25500
C441        C  0.79841085  0.68695479  0.00109779    -0.14700
C442        C  0.84670163  0.72729896  0.00975225     0.37600
N443        N  0.85506855  0.76802190  0.03888704    -0.89000
H444        H  0.92541375  0.75771087  0.99835005     0.18700
H445        H  0.75629639  0.61748521  0.96608440     0.18700
N446        N  0.82811426  0.60862818  0.92344697    -0.88000
H447        H  0.87769072  0.76952448  0.06689015     0.36100
H448        H  0.82192216  0.76260784  0.05409889     0.41200
H449        H  0.83904170  0.62275962  0.88953083     0.40800
H450        H  0.79023176  0.58187565  0.92137065     0.35700
C451        C  0.95052526  0.62385798  0.11594243    -0.26000
C452        C  0.99956853  0.65321552  0.09846175    -0.14100
C453        C  0.03935913  0.67757826  0.13043010     0.36500
C454        C  0.02911399  0.67275881  0.17879676    -0.25500
C455        C  0.98002760  0.64403986  0.19626631    -0.14700
C456        C  0.94025190  0.61925666  0.16438387     0.37600
N457        N  0.88989995  0.58857987  0.18105532    -0.89000
H458        H  0.91969601  0.60498783  0.09164039     0.18700
H459        H  0.05988952  0.69189030  0.20311918     0.18700
N460        N  0.09000075  0.70686905  0.11391276    -0.88000
H461        H  0.86573277  0.57039387  0.15310293     0.36100
H462        H  0.87795889  0.61155083  0.19540863     0.41200
H463        H  0.10006473  0.68318916  0.09781535     0.40800
H464        H  0.11463565  0.72309295  0.14199978     0.35700
C465        C  0.03149924  0.47324126  0.91209922    -0.26000
C466        C  0.98287710  0.43325806  0.91835610    -0.14100
C467        C  0.94203118  0.44170914  0.92068897     0.36500
C468        C  0.95098684  0.48994870  0.91912764    -0.25500
C469        C  0.99982655  0.53008999  0.91647079    -0.14700
C470        C  0.04060787  0.52173867  0.91203895     0.37600
N471        N  0.09097657  0.56218221  0.90780155    -0.89000
H472        H  0.06288751  0.46686740  0.91008148     0.18700
H473        H  0.91964132  0.49628312  0.92238811     0.18700
N474        N  0.89168400  0.40144688  0.92583014    -0.88000
H475        H  0.11571778  0.54943313  0.90044521     0.36100
H476        H  0.10159709  0.57907195  0.94062061     0.41200
H477        H  0.88279713  0.38040903  0.89529376     0.40800
H478        H  0.86619787  0.41412573  0.92815269     0.35700
C479        C  0.11334244  0.76778553  0.80022852    -0.26000
C480        C  0.12240571  0.77701082  0.84854149    -0.14100
C481        C  0.16619217  0.81995789  0.86301910     0.36500
C482        C  0.19955215  0.85235502  0.82903159    -0.25500
C483        C  0.19037959  0.84333933  0.78067566    -0.14700
C484        C  0.14678163  0.80010368  0.76621571     0.37600
N485        N  0.13586382  0.78937966  0.71721402    -0.89000
H486        H  0.07999253  0.73485118  0.78876289     0.18700
H487        H  0.23287622  0.88526788  0.84056089     0.18700
N488        N  0.17645723  0.83113699  0.91204462    -0.88000
H489        H  0.10082458  0.75794425  0.71270325     0.36100
H490        H  0.16209138  0.78083902  0.70367069     0.41200
H491        H  0.14911817  0.83831706  0.92526322     0.40800
H492        H  0.21084080  0.86329596  0.91667715     0.35700
loop_ 
_geom_bond_atom_site_label_1 
_geom_bond_atom_site_label_2 
_geom_bond_distance 
_geom_bond_site_symmetry_2 
_ccdc_geom_bond_type 
O1            C4   1.267   1_655  A
O1           Cd6   2.435   1_655  S
C2           O11   1.267       .  A
C2            O7   1.268       .  A
C2          C438   1.484       .  S
O3            C9   1.272       .  A
O3           Cd6   2.492   1_554  S
C4           O12   1.266       .  A
C4          C469   1.475   1_455  S
C5           O10   1.269       .  A
C5            O8   1.266       .  A
C5          C480   1.491       .  S
Cd6          O13   2.419   1_456  S
Cd6          O12   2.438       .  S
Cd6          O11   2.436   1_455  S
Cd6           O7   2.437   1_455  S
Cd6          O10   2.479       .  S
Cd6           O8   2.452       .  S
C9           O13   1.262   1_455  A
C9          C452   1.486   1_455  S
O14          C17   1.269   1_455  A
O14         Cd19   2.468   1_455  S
C15          O24   1.265   1_455  A
C15          O20   1.270       .  A
C15         C410   1.468       .  S
O16          C22   1.275       .  A
O16         Cd19   2.513   1_554  S
C17          O25   1.266       .  A
C17         C466   1.480       .  S
C18          O23   1.272       .  A
C18          O21   1.265       .  A
C18         C424   1.491       .  S
Cd19         O26   2.394   1_656  S
Cd19         O25   2.422       .  S
Cd19         O24   2.423       .  S
Cd19         O20   2.456   1_655  S
Cd19         O23   2.505       .  S
Cd19         O21   2.444       .  S
C22          O26   1.263   1_655  A
C22         C396   1.485       .  S
O27          C30   1.269   1_655  A
O27         Cd32   2.462   1_655  S
C28          O37   1.263       .  A
C28          O33   1.270       .  A
C28         C354   1.468       .  S
O29          C35   1.273       .  A
O29         Cd32   2.496       .  S
C30          O38   1.268       .  A
C30         C368   1.482       .  S
C31          O36   1.271       .  A
C31          O34   1.266       .  A
C31         C382   1.491       .  S
Cd32         O39   2.422   1_455  S
Cd32         O38   2.432       .  S
Cd32         O37   2.417   1_455  S
Cd32         O33   2.460   1_455  S
Cd32         O36   2.502       .  S
Cd32         O34   2.464       .  S
C35          O39   1.263   1_455  A
C35         C399   1.489       .  S
O40          C43   1.267   1_455  A
O40         Cd45   2.448   1_455  S
C41          O50   1.265       .  A
C41          O46   1.269       .  A
C41         C326   1.478       .  S
O42          C48   1.273       .  A
O42         Cd45   2.512       .  S
C43          O51   1.267       .  A
C43         C371   1.485       .  S
C44          O49   1.270       .  A
C44          O47   1.266       .  A
C44         C340   1.491       .  S
Cd45         O52   2.407   1_655  S
Cd45         O51   2.459       .  S
Cd45         O50   2.431   1_655  S
Cd45         O46   2.440   1_655  S
Cd45         O49   2.495       .  S
Cd45         O47   2.461       .  S
C48          O52   1.261   1_655  A
C48         C455   1.485       .  S
O53          C56   1.266       .  A
O53         Cd58   2.446       .  S
C54          O63   1.266       .  A
C54          O59   1.266       .  A
C54         C287   1.485       .  S
O55          C61   1.271       .  A
O55         Cd58   2.512       .  S
C56          O64   1.268       .  A
C56         C312   1.479       .  S
C57          O62   1.270       .  A
C57          O60   1.265       .  A
C57         C385   1.498       .  S
Cd58         O65   2.437       .  S
Cd58         O64   2.457       .  S
Cd58         O63   2.444       .  S
Cd58         O59   2.442       .  S
Cd58         O62   2.501       .  S
Cd58         O60   2.468       .  S
C61          O65   1.262       .  A
C61         C298   1.489       .  S
O66          C69   1.270       .  A
O66         Cd71   2.425       .  S
C67          O76   1.267       .  A
C67          O72   1.267       .  A
C67         C315   1.485       .  S
O68          C74   1.272       .  A
O68         Cd71   2.513       .  S
C69          O77   1.266       .  A
C69         C256   1.481       .  S
C70          O75   1.275       .  A
C70          O73   1.261       .  A
C70         C270   1.490       .  S
Cd71         O78   2.448       .  S
Cd71         O77   2.420       .  S
Cd71         O76   2.443       .  S
Cd71         O72   2.459       .  S
Cd71         O75   2.510       .  S
Cd71         O73   2.429       .  S
C74          O78   1.265       .  A
C74         C343   1.497       .  S
O79          C82   1.269       .  A
O79         Cd84   2.469       .  S
C80          O89   1.264   1_554  A
C80          O85   1.270       .  A
C80         C413   1.475       .  S
O81          C87   1.273       .  A
O81         Cd84   2.502   1_556  S
C82          O90   1.265       .  A
C82         C231   1.482       .  S
C83          O88   1.269       .  A
C83          O86   1.266       .  A
C83         C245   1.496       .  S
Cd84         O91   2.423   1_554  S
Cd84         O90   2.430       .  S
Cd84         O89   2.429   1_554  S
Cd84         O85   2.467       .  S
Cd84         O88   2.493       .  S
Cd84         O86   2.471       .  S
C87          O91   1.263       .  A
C87         C301   1.486       .  S
O92          C95   1.266       .  A
O92         Cd97   2.431       .  S
C93         O102   1.264       .  A
C93          O98   1.265       .  A
C93         C441   1.472       .  S
O94         C100   1.271       .  A
O94         Cd97   2.529   1_556  S
C95         O103   1.269       .  A
C95         C228   1.479       .  S
C96         O101   1.269       .  A
C96          O99   1.265       .  A
C96         C214   1.487       .  S
Cd97        O104   2.421   1_554  S
Cd97        O103   2.468       .  S
Cd97        O102   2.457       .  S
Cd97         O98   2.445       .  S
Cd97        O101   2.484       .  S
Cd97         O99   2.472       .  S
C100        O104   1.260       .  A
C100        C273   1.491       .  S
O105        C108   1.268       .  A
O105       Cd110   2.452       .  S
C106        O115   1.264       .  A
C106        O111   1.266       .  A
C106        C284   1.481       .  S
O107        C113   1.266       .  A
O107       Cd110   2.489       .  S
C108        O116   1.269       .  A
C108        C203   1.485       .  S
C109        O114   1.268       .  A
C109        O112   1.265       .  A
C109        C483   1.493       .  S
Cd110       O117   2.474       .  S
Cd110       O116   2.443       .  S
Cd110       O115   2.452   1_565  S
Cd110       O111   2.447   1_565  S
Cd110       O114   2.496       .  S
Cd110       O112   2.464       .  S
C113        O117   1.263       .  A
C113        C186   1.496       .  S
O118        C121   1.268       .  A
O118       Cd123   2.447   1_565  S
C119        O128   1.265       .  A
C119        O124   1.266       .  A
C119        C259   1.471       .  S
O120        C126   1.265       .  A
O120       Cd123   2.488       .  S
C121        O129   1.269   1_565  A
C121        C200   1.479       .  S
C122        O127   1.270       .  A
C122        O125   1.264       .  A
C122        C427   1.495       .  S
Cd123       O130   2.487       .  S
Cd123       O129   2.444       .  S
Cd123       O128   2.442   1_545  S
Cd123       O124   2.426   1_545  S
Cd123       O127   2.495       .  S
Cd123       O125   2.468       .  S
C126        O130   1.265       .  A
C126        C172   1.494       .  S
O131        C134   1.267       .  A
O131       Cd136   2.450   1_565  S
C132        O141   1.265       .  A
C132        O137   1.266       .  A
C132        C329   1.478       .  S
O133        C139   1.268       .  A
O133       Cd136   2.503       .  S
C134        O142   1.269   1_565  A
C134        C158   1.480       .  S
C135        O140   1.269       .  A
C135        O138   1.266       .  A
C135        C242   1.494       .  S
Cd136       O143   2.473   1_545  S
Cd136       O142   2.447       .  S
Cd136       O141   2.437   1_545  S
Cd136       O137   2.444   1_545  S
Cd136       O140   2.503       .  S
Cd136       O138   2.471       .  S
C139        O143   1.263   1_545  A
C139        C189   1.494   1_545  S
O144        C147   1.268   1_545  A
O144       Cd149   2.463   1_545  S
C145        O154   1.264       .  A
C145        O150   1.269       .  A
C145        C357   1.476       .  S
O146        C152   1.273       .  A
O146       Cd149   2.500       .  S
C147        O155   1.268       .  A
C147        C161   1.485       .  S
C148        O153   1.271       .  A
C148        O151   1.265       .  A
C148        C217   1.496       .  S
Cd149       O156   2.445   1_565  S
Cd149       O155   2.438       .  S
Cd149       O154   2.420   1_565  S
Cd149       O150   2.472   1_565  S
Cd149       O153   2.503       .  S
Cd149       O151   2.456       .  S
C152        O156   1.264   1_565  A
C152        C175   1.488       .  S
C157        C158   1.403   1_545  A
C157        C162   1.399       .  A
C157        H164   1.084       .  S
C158        C159   1.414       .  A
C159        C160   1.405       .  A
C159        N166   1.439       .  S
C160        C161   1.406       .  A
C160        H165   1.084       .  S
C161        C162   1.417   1_565  A
C162        N163   1.432       .  S
N163        H167   1.045       .  S
N163        H168   1.045       .  S
N166        H169   1.046       .  S
N166        H170   1.045       .  S
C171        C172   1.406       .  A
C171        C176   1.408       .  A
C171        H178   1.084       .  S
C172        C173   1.420   1_545  A
C173        C174   1.402       .  A
C173        N180   1.432       .  S
C174        C175   1.403       .  A
C174        H179   1.084       .  S
C175        C176   1.422   1_565  A
C176        N177   1.440       .  S
N177        H181   1.046   1_545  S
N177        H182   1.042   1_545  S
N180        H183   1.045       .  S
N180        H184   1.045   1_565  S
C185        C186   1.407       .  A
C185        C190   1.409       .  A
C185        H192   1.083       .  S
C186        C187   1.418       .  A
C187        C188   1.410       .  A
C187        N194   1.438       .  S
C188        C189   1.406       .  A
C188        H193   1.083       .  S
C189        C190   1.414       .  A
C190        N191   1.438       .  S
N191        H195   1.046       .  S
N191        H196   1.046       .  S
N194        H197   1.046       .  S
N194        H198   1.045       .  S
C199        C200   1.403   1_545  A
C199        C204   1.406       .  A
C199        H206   1.084       .  S
C200        C201   1.412       .  A
C201        C202   1.405       .  A
C201        N208   1.438       .  S
C202        C203   1.405       .  A
C202        H207   1.083       .  S
C203        C204   1.415   1_565  A
C204        N205   1.438       .  S
N205        H209   1.045       .  S
N205        H210   1.046       .  S
N208        H211   1.046       .  S
N208        H212   1.045       .  S
C213        C214   1.402       .  A
C213        C218   1.408       .  A
C213        H220   1.084       .  S
C214        C215   1.414       .  A
C215        C216   1.410       .  A
C215        N222   1.438       .  S
C216        C217   1.407       .  A
C216        H221   1.083       .  S
C217        C218   1.419       .  A
C218        N219   1.438       .  S
N219        H223   1.046       .  S
N219        H224   1.046       .  S
N222        H225   1.046       .  S
N222        H226   1.046       .  S
C227        C228   1.403       .  A
C227        C232   1.403       .  A
C227        H234   1.084       .  S
C228        C229   1.410       .  A
C229        C230   1.407       .  A
C229        N236   1.437       .  S
C230        C231   1.406       .  A
C230        H235   1.083       .  S
C231        C232   1.414       .  A
C232        N233   1.438       .  S
N233        H237   1.046       .  S
N233        H238   1.045       .  S
N236        H239   1.045       .  S
N236        H240   1.046       .  S
C241        C242   1.407       .  A
C241        C246   1.403       .  A
C241        H248   1.084       .  S
C242        C243   1.414       .  A
C243        C244   1.411       .  A
C243        N250   1.438       .  S
C244        C245   1.409       .  A
C244        H249   1.083       .  S
C245        C246   1.418       .  A
C246        N247   1.432       .  S
N247        H251   1.044       .  S
N247        H252   1.046       .  S
N250        H253   1.045       .  S
N250        H254   1.046       .  S
C255        C256   1.405       .  A
C255        C260   1.400       .  A
C255        H262   1.083       .  S
C256        C257   1.418       .  A
C257        C258   1.405       .  A
C257        N264   1.438       .  S
C258        C259   1.400       .  A
C258        H263   1.084       .  S
C259        C260   1.410       .  A
C260        N261   1.439       .  S
N261        H265   1.045       .  S
N261        H266   1.046       .  S
N264        H267   1.046       .  S
N264        H268   1.046       .  S
C269        C270   1.399       .  A
C269        C274   1.399       .  A
C269        H276   1.084       .  S
C270        C271   1.424       .  A
C271        C272   1.405       .  A
C271        N278   1.433       .  S
C272        C273   1.403       .  A
C272        H277   1.084       .  S
C273        C274   1.423       .  A
C274        N275   1.432       .  S
N275        H279   1.044       .  S
N275        H280   1.045       .  S
N278        H281   1.045       .  S
N278        H282   1.045       .  S
C283        C284   1.403       .  A
C283        C288   1.396       .  A
C283        H290   1.084       .  S
C284        C285   1.413       .  A
C285        C286   1.406       .  A
C285        N292   1.438       .  S
C286        C287   1.407       .  A
C286        H291   1.083       .  S
C287        C288   1.418       .  A
C288        N289   1.433       .  S
N289        H293   1.045       .  S
N289        H294   1.045       .  S
N292        H295   1.045       .  S
N292        H296   1.046       .  S
C297        C298   1.410       .  A
C297        C302   1.409       .  A
C297        H304   1.083       .  S
C298        C299   1.410       .  A
C299        C300   1.407       .  A
C299        N306   1.437       .  S
C300        C301   1.408       .  A
C300        H305   1.084       .  S
C301        C302   1.410       .  A
C302        N303   1.438       .  S
N303        H307   1.046       .  S
N303        H308   1.045       .  S
N306        H309   1.046       .  S
N306        H310   1.046       .  S
C311        C312   1.403       .  A
C311        C316   1.406       .  A
C311        H318   1.084       .  S
C312        C313   1.412       .  A
C313        C314   1.403       .  A
C313        N320   1.439       .  S
C314        C315   1.405       .  A
C314        H319   1.084       .  S
C315        C316   1.416       .  A
C316        N317   1.438       .  S
N317        H321   1.046       .  S
N317        H322   1.046       .  S
N320        H323   1.046       .  S
N320        H324   1.046       .  S
C325        C326   1.403       .  A
C325        C330   1.402       .  A
C325        H332   1.084       .  S
C326        C327   1.413       .  A
C327        C328   1.405       .  A
C327        N334   1.438       .  S
C328        C329   1.404       .  A
C328        H333   1.084       .  S
C329        C330   1.413       .  A
C330        N331   1.439       .  S
N331        H335   1.046       .  S
N331        H336   1.046       .  S
N334        H337   1.045       .  S
N334        H338   1.046       .  S
C339        C340   1.402       .  A
C339        C344   1.409       .  A
C339        H346   1.084       .  S
C340        C341   1.415       .  A
C341        C342   1.411       .  A
C341        N348   1.438       .  S
C342        C343   1.406       .  A
C342        H347   1.083       .  S
C343        C344   1.420       .  A
C344        N345   1.438       .  S
N345        H349   1.045       .  S
N345        H350   1.046       .  S
N348        H351   1.046       .  S
N348        H352   1.045       .  S
C353        C354   1.405       .  A
C353        C358   1.397       .  A
C353        H360   1.085       .  S
C354        C355   1.411       .  A
C355        C356   1.400       .  A
C355        N362   1.439       .  S
C356        C357   1.407       .  A
C356        H361   1.084       .  S
C357        C358   1.411       .  A
C358        N359   1.432       .  S
N359        H363   1.044       .  S
N359        H364   1.046       .  S
N362        H365   1.043       .  S
N362        H366   1.046       .  S
C367        C368   1.405   1_655  A
C367        C372   1.408       .  A
C367        H374   1.084       .  S
C368        C369   1.409       .  A
C369        C370   1.401       .  A
C369        N376   1.433       .  S
C370        C371   1.405   1_455  A
C370        H375   1.084       .  S
C371        C372   1.416       .  A
C372        N373   1.438       .  S
N373        H377   1.045       .  S
N373        H378   1.045       .  S
N376        H379   1.046       .  S
N376        H380   1.045       .  S
C381        C382   1.403       .  A
C381        C386   1.411       .  A
C381        H388   1.084       .  S
C382        C383   1.414       .  A
C383        C384   1.410       .  A
C383        N390   1.438       .  S
C384        C385   1.406       .  A
C384        H389   1.083       .  S
C385        C386   1.420       .  A
C386        N387   1.438       .  S
N387        H391   1.046       .  S
N387        H392   1.045       .  S
N390        H393   1.046       .  S
N390        H394   1.046       .  S
C395        C396   1.408   1_455  A
C395        C400   1.405       .  A
C395        H402   1.084       .  S
C396        C397   1.409       .  A
C397        C398   1.409       .  A
C397        N404   1.438       .  S
C398        C399   1.412   1_655  A
C398        H403   1.083       .  S
C399        C400   1.410       .  A
C400        N401   1.438       .  S
N401        H405   1.046       .  S
N401        H406   1.045       .  S
N404        H407   1.045       .  S
N404        H408   1.046       .  S
C409        C410   1.404   1_554  A
C409        C414   1.400       .  A
C409        H416   1.085       .  S
C410        C411   1.411       .  A
C411        C412   1.401       .  A
C411        N418   1.439       .  S
C412        C413   1.407   1_556  A
C412        H417   1.084       .  S
C413        C414   1.414       .  A
C414        N415   1.437       .  S
N415        H419   1.045       .  S
N415        H420   1.043       .  S
N418        H421   1.043       .  S
N418        H422   1.046       .  S
C423        C424   1.404       .  A
C423        C428   1.411       .  A
C423        H430   1.084       .  S
C424        C425   1.416       .  A
C425        C426   1.407       .  A
C425        N432   1.438       .  S
C426        C427   1.404       .  A
C426        H431   1.083       .  S
C427        C428   1.420       .  A
C428        N429   1.438       .  S
N429        H433   1.046       .  S
N429        H434   1.045       .  S
N432        H435   1.046       .  S
N432        H436   1.046       .  S
C437        C438   1.408       .  A
C437        C442   1.403   1_556  A
C437        H444   1.084       .  S
C438        C439   1.414       .  A
C439        C440   1.401       .  A
C439        N446   1.438       .  S
C440        C441   1.402   1_556  A
C440        H445   1.084       .  S
C441        C442   1.414       .  A
C442        N443   1.439       .  S
N443        H447   1.046       .  S
N443        H448   1.042       .  S
N446        H449   1.046       .  S
N446        H450   1.046       .  S
C451        C452   1.410       .  A
C451        C456   1.407       .  A
C451        H458   1.083       .  S
C452        C453   1.409   1_655  A
C453        C454   1.405       .  A
C453        N460   1.438       .  S
C454        C455   1.409   1_455  A
C454        H459   1.084       .  S
C455        C456   1.409       .  A
C456        N457   1.437       .  S
N457        H461   1.046       .  S
N457        H462   1.045       .  S
N460        H463   1.046       .  S
N460        H464   1.045       .  S
C465        C466   1.405   1_455  A
C465        C470   1.406       .  A
C465        H472   1.083       .  S
C466        C467   1.413       .  A
C467        C468   1.401       .  A
C467        N474   1.438       .  S
C468        C469   1.402       .  A
C468        H473   1.084       .  S
C469        C470   1.413   1_655  A
C470        N471   1.438       .  S
N471        H475   1.045       .  S
N471        H476   1.045       .  S
N474        H477   1.045       .  S
N474        H478   1.046       .  S
C479        C480   1.407       .  A
C479        C484   1.408       .  A
C479        H486   1.083       .  S
C480        C481   1.413       .  A
C481        C482   1.408       .  A
C481        N488   1.438       .  S
C482        C483   1.408       .  A
C482        H487   1.083       .  S
C483        C484   1.415       .  A
C484        N485   1.438       .  S
N485        H489   1.046       .  S
N485        H490   1.045       .  S
N488        H491   1.046       .  S
N488        H492   1.045       .  S
