geometry optimzed in LAMMPS
_audit_creation_date              2020-11-30 
_audit_creation_method            'lammps2cif' 
_symmetry_space_group_name_H-M    'P1' 
_symmetry_Int_Tables_number       1 
_symmetry_cell_setting            triclinic 
loop_ 
_symmetry_equiv_pos_as_xyz 
  x,y,z 
_cell_length_a                    49.96732479 
_cell_length_b                    50.00920302149024 
_cell_length_c                    48.04786702531724 
_cell_angle_alpha                 90.65582143309575 
_cell_angle_beta                  89.69333488208999 
_cell_angle_gamma                 120.18597009566925 
loop_ 
_atom_site_label 
_atom_site_type_symbol 
_atom_site_fract_x 
_atom_site_fract_y 
_atom_site_fract_z 
_atom_site_charge 
O1          O  0.31644252  0.37908018  0.54823427    -0.81800
O2          O  0.29247420  0.38811883  0.67377742    -0.66500
O3          O  0.32044932  0.41101542  0.59877130    -1.13100
C4          C  0.40323627  0.39814889  0.62619462     1.05100
O5          O  0.33937655  0.41941987  0.69038758    -0.79700
O6          O  0.38434153  0.45263749  0.65415725    -0.67300
Ni7        Ni  0.29277491  0.39423328  0.56799039     1.34900
C8          C  0.39073610  0.46269467  0.62953777     0.83800
O9          O  0.27198911  0.40752986  0.63124265    -0.80300
O10         O  0.26655662  0.40769720  0.58473708    -0.90500
C11         C  0.31055657  0.40156801  0.69415571     0.83400
O12         O  0.26698427  0.35364059  0.58190063    -0.68700
O13         O  0.39878325  0.40661163  0.65009817    -0.88000
C14         C  0.26359325  0.34136051  0.60555920     0.84200
C15         C  0.25887418  0.41025251  0.60960425     1.05800
H16         H  0.33077744  0.36963072  0.64134570     0.37600
O17         O  0.33880606  0.39153819  0.63904789    -1.10700
O18         O  0.38174056  0.44503660  0.60818298    -0.67300
Ni19       Ni  0.35289500  0.40173450  0.60152823     1.26300
O20         O  0.27809925  0.35640142  0.62718408    -0.67600
O21         O  0.38524243  0.39240207  0.60558752    -0.79900
C22         C  0.34556377  0.39121461  0.54516272     0.83600
O23         O  0.36412558  0.40976629  0.56324703    -0.67000
Ni24       Ni  0.36757237  0.41215880  0.66848660     1.27400
Ni25       Ni  0.30528352  0.39931608  0.63583733     1.26100
H26         H  0.32934028  0.43317088  0.59775649     0.38100
O27         O  0.38140283  0.31552666  0.45383789    -0.81800
O28         O  0.39557082  0.28741082  0.33033234    -0.66500
O29         O  0.41409395  0.32034647  0.40437738    -1.13100
C30         C  0.39770149  0.39925932  0.37528885     1.05100
O31         O  0.41055953  0.33198784  0.30856195    -0.79700
O32         O  0.44970312  0.37465272  0.34607215    -0.67300
Ni33       Ni  0.40102523  0.29485057  0.43623116     1.34900
C34         C  0.46073769  0.38535593  0.37005229     0.83800
O35         O  0.41843696  0.27420978  0.37497124    -0.80300
O36         O  0.41920479  0.27164941  0.42164717    -0.90500
C37         C  0.40262945  0.30354801  0.30839455     0.83400
O38         O  0.36187924  0.26415574  0.42248034    -0.68700
O39         O  0.40876009  0.39541895  0.35272035    -0.88000
C40         C  0.34917833  0.25624704  0.39868881     0.84200
C41         C  0.42333620  0.26367614  0.39737820     1.05800
H42         H  0.36823122  0.32189650  0.36051466     0.37600
O43         O  0.39044799  0.33253935  0.36280096    -1.10700
O44         O  0.44346429  0.38024660  0.39142092    -0.67300
Ni45       Ni  0.40071655  0.34952393  0.39984165     1.26300
O46         O  0.36226316  0.27076198  0.37649027    -0.67600
O47         O  0.38789432  0.37939012  0.39454608    -0.79900
C48         C  0.39072476  0.34423921  0.45618323     0.83600
O49         O  0.40846173  0.36292359  0.43784761    -0.67000
Ni50       Ni  0.40901616  0.36160710  0.33323500     1.27400
Ni51       Ni  0.40414499  0.30287969  0.36797789     1.26100
H52         H  0.43641667  0.33137576  0.40555293     0.38100
O53         O  0.16988822  0.04562311  0.45225404    -0.81800
O54         O  0.20343045  0.08915247  0.33020928    -0.66500
O55         O  0.17037622  0.07776483  0.40373890    -1.13100
C56         C  0.08545724  0.48772121  0.37000868     1.05100
O57         O  0.15793253  0.06971145  0.30861270    -0.79700
O58         O  0.11684903  0.06741797  0.34650299    -0.67300
Ni59       Ni  0.19589776  0.08557893  0.43564125     1.34900
C60         C  0.10567750  0.06678807  0.37045037     0.83800
O61         O  0.22199546  0.12468129  0.37564303    -0.80300
O62         O  0.22435809  0.12630723  0.42242912    -0.90500
C63         C  0.18735708  0.08489888  0.30853747     0.83400
O64         O  0.22212131  0.07123525  0.42115208    -0.68700
O65         O  0.09041053  0.50380931  0.34823114    -0.88000
C66         C  0.22792932  0.06561392  0.39672493     0.84200
C67         C  0.23462560  0.13812671  0.39858528     1.05800
H68         H  0.16138610  0.02883174  0.35697825     0.37600
O69         O  0.15381922  0.04295974  0.36036376    -1.10700
O70         O  0.10950586  0.05272412  0.39069338    -0.67300
Ni71       Ni  0.13735160  0.03669772  0.39719402     1.26300
O72         O  0.21417688  0.06713922  0.37513041    -0.67600
O73         O  0.10483531  0.49589797  0.38966194    -0.79900
C74         C  0.14053872  0.02947387  0.45359692     0.83600
O75         O  0.12349057  0.03052577  0.43477484    -0.67000
Ni76       Ni  0.12609073  0.03787671  0.33090730     1.27400
Ni77       Ni  0.18793371  0.08395959  0.36740771     1.26100
H78         H  0.16194349  0.09134110  0.40565703     0.38100
O79         O  0.10882360  0.42953713  0.54813670    -0.81800
O80         O  0.09364798  0.38599609  0.67114772    -0.66500
O81         O  0.07590424  0.39921132  0.59710272    -1.13100
C82         C  0.08791990  0.49287247  0.63060946     1.05100
O83         O  0.06964856  0.40788517  0.69238007    -0.79700
O84         O  0.03456565  0.41615249  0.65500598    -0.67300
Ni85       Ni  0.09369905  0.38990391  0.56578039     1.34900
C86         C  0.02492663  0.41515511  0.63045246     0.83800
O87         O  0.07374123  0.34989834  0.62593388    -0.80300
O88         O  0.08004124  0.34910043  0.57969654    -0.90500
C89         C  0.08252643  0.39151634  0.69274084     0.83400
O90         O  0.13389562  0.40450098  0.58095810    -0.68700
O91         O  0.07736888  0.47803424  0.65313108    -0.88000
C92         C  0.14418309  0.40900829  0.60567448     0.84200
C93         C  0.07325924  0.33595207  0.60335213     1.05800
H94         H  0.11742435  0.44687099  0.64373856     0.37600
O95         O  0.09542198  0.43412319  0.64052585    -1.10700
O96         O  0.04323185  0.42688225  0.60982086    -0.67300
Ni97       Ni  0.08663702  0.44111829  0.60350632     1.26300
O98         O  0.12758493  0.40542787  0.62695450    -0.67600
O99         O  0.09707191  0.48283231  0.61057210    -0.79900
C100        C  0.09736872  0.44717531  0.54698645     0.83600
O101        O  0.07990398  0.44754787  0.56593370    -0.67000
Ni102      Ni  0.07449570  0.44193727  0.67028794     1.27400
Ni103      Ni  0.08485378  0.39194878  0.63382313     1.26100
H104        H  0.05376385  0.38668526  0.59462513     0.38100
O105        O  0.06111657  0.16669085  0.54666868    -0.81800
O106        O  0.09788389  0.19687539  0.67208356    -0.66500
O107        O  0.08823596  0.16460217  0.59815808    -1.13100
C108        C  0.49219213  0.08566055  0.62749253     1.05100
O109        O  0.07624892  0.15103312  0.69261728    -0.79700
O110        O  0.06719905  0.10614889  0.65611204    -0.67300
Ni111      Ni  0.09946717  0.19148173  0.56677236     1.34900
C112        C  0.06864616  0.09678368  0.63183336     0.83800
O113        O  0.13600558  0.21203133  0.62915436    -0.80300
O114        O  0.13921843  0.21909867  0.58297245    -0.90500
C115        C  0.09229487  0.18036352  0.69346191     0.83400
O116        O  0.08366445  0.21690924  0.58009893    -0.68700
O117        O  0.00607944  0.08942987  0.65147956    -0.88000
C118        C  0.07821875  0.22359099  0.60426823     0.84200
C119        C  0.15083692  0.22587168  0.60738625     1.05800
H120        H  0.03870766  0.15974390  0.64217952     0.37600
O121        O  0.05137417  0.15031655  0.63981866    -1.10700
O122        O  0.05829523  0.10369987  0.61049255    -0.67300
Ni123      Ni  0.04584666  0.13402514  0.60281475     1.26300
O124        O  0.08102952  0.21111051  0.62610053    -0.67600
O125        O  0.00355357  0.10394175  0.60824300    -0.79900
C126        C  0.04255227  0.13766122  0.54571801     0.83600
O127        O  0.04085141  0.12017147  0.56525832    -0.67000
Ni128      Ni  0.04217674  0.12203437  0.66976822     1.27400
Ni129      Ni  0.09369955  0.18157987  0.63486948     1.26100
H130        H  0.10047965  0.15462448  0.59679556     0.38100
O131        O  0.43982955  0.10985256  0.45273400    -0.81800
O132        O  0.40109684  0.09881491  0.32787100    -0.66500
O133        O  0.40997456  0.07834658  0.40256447    -1.13100
C134        C  0.00420033  0.08972172  0.36965397     1.05100
O135        O  0.41430043  0.06571794  0.31127920    -0.79700
O136        O  0.42834294  0.03392504  0.34626397    -0.67300
Ni137      Ni  0.40062506  0.09596413  0.43394300     1.34900
C138        C  0.42540131  0.02469484  0.37110644     0.83800
O139        O  0.36297319  0.07979758  0.37222944    -0.80300
O140        O  0.36018851  0.08305601  0.41881645    -0.90500
C141        C  0.40448395  0.08435645  0.30754073     0.83400
O142        O  0.41619524  0.13666695  0.41974419    -0.68700
O143        O  0.48939047  0.08004552  0.34647693    -0.88000
C144        C  0.42214584  0.14811675  0.39548061     0.84200
C145        C  0.34827815  0.07824286  0.39450095     1.05800
H146        H  0.45949022  0.11816259  0.35709418     0.37600
O147        O  0.44563111  0.09636626  0.36022989    -1.10700
O148        O  0.43573425  0.04328385  0.39179073    -0.67300
Ni149      Ni  0.45154603  0.08712100  0.39733250     1.26300
O150        O  0.41987914  0.13215857  0.37383033    -0.67600
O151        O  0.49300996  0.09584744  0.39079523    -0.79900
C152        C  0.45644681  0.09721349  0.45435246     0.83600
O153        O  0.45686392  0.08002943  0.43505294    -0.67000
Ni154      Ni  0.45138687  0.07392870  0.33054534     1.27400
Ni155      Ni  0.40450949  0.08882967  0.36572717     1.26100
H156        H  0.39654612  0.05625526  0.40424106     0.38100
O157        O  0.34361146  0.40499062  0.80946375    -0.81800
O158        O  0.37396773  0.40562145  0.93851215    -0.66500
O159        O  0.34353853  0.38487400  0.86388103    -1.13100
C160        C  0.27132674  0.41390625  0.89745358     1.05100
O161        O  0.32692332  0.37764830  0.95555860    -0.79700
O162        O  0.27598887  0.35247744  0.92307973    -0.67300
Ni163      Ni  0.37275078  0.40325487  0.83419302     1.34900
C164        C  0.26887730  0.34110558  0.89869228     0.83800
O165        O  0.38980253  0.38301497  0.89584573    -0.80300
O166        O  0.40603714  0.40267457  0.85367809    -0.90500
C167        C  0.35610213  0.38960999  0.95799304     0.83400
O168        O  0.38583733  0.44409203  0.84717335    -0.68700
O169        O  0.27711938  0.40749217  0.92154809    -0.88000
C170        C  0.39714145  0.45543376  0.87097135     0.84200
C171        C  0.40950817  0.39194185  0.87634913     1.05800
H172        H  0.34095390  0.43099475  0.90716613     0.37600
O173        O  0.33034415  0.40871619  0.90546484    -1.10700
O174        O  0.28205977  0.35643121  0.87692131    -0.67300
Ni175      Ni  0.31365032  0.39824749  0.86878134     1.26300
O176        O  0.39137529  0.43836435  0.89226264    -0.67600
O177        O  0.28460474  0.41213230  0.87527440    -0.79900
C178        C  0.31493911  0.39613636  0.80928970     0.83600
O179        O  0.29854722  0.38866344  0.83120122    -0.67000
Ni180      Ni  0.30328897  0.39321839  0.93683279     1.27400
Ni181      Ni  0.36012735  0.39598523  0.90091778     1.26100
H182        H  0.33317389  0.36264600  0.86171891     0.38100
O183        O  0.42603092  0.33504215  0.19370749    -0.81800
O184        O  0.41889486  0.36499617  0.06684577    -0.66500
O185        O  0.40099457  0.33641723  0.14166058    -1.13100
C186        C  0.42256290  0.25946560  0.10650265     1.05100
O187        O  0.38964863  0.31784295  0.04945072    -0.79700
O188        O  0.36484976  0.26655576  0.08113511    -0.67300
Ni189      Ni  0.42323597  0.36501088  0.17103204     1.34900
C190        C  0.35242102  0.26160344  0.10503673     0.83800
O191        O  0.40035206  0.38328671  0.11115874    -0.80300
O192        O  0.42227962  0.39885800  0.15303498    -0.90500
C193        C  0.40140660  0.34702507  0.04792379     0.83400
O194        O  0.46253201  0.37615746  0.15573297    -0.68700
O195        O  0.41970283  0.26763052  0.08208781    -0.88000
C196        C  0.47254561  0.38664961  0.13166279     0.84200
C197        C  0.41063869  0.40285911  0.13102476     1.05800
H198        H  0.44363513  0.33017246  0.09800272     0.37600
O199        O  0.42139584  0.32063208  0.09929555    -1.10700
O200        O  0.36718898  0.27581071  0.12692109    -0.67300
Ni201      Ni  0.41000362  0.30385671  0.13574118     1.26300
O202        O  0.45426604  0.38182775  0.11142778    -0.67600
O203        O  0.41971938  0.27197933  0.12871848    -0.79900
C204        C  0.41138192  0.30569187  0.19458395     0.83600
O205        O  0.39921208  0.28893529  0.17311190    -0.67000
Ni206      Ni  0.40541169  0.29398018  0.06744007     1.27400
Ni207      Ni  0.41093320  0.35206860  0.10459407     1.26100
H208        H  0.37909597  0.32798831  0.14481162     0.38100
O209        O  0.16049970  0.07927601  0.19174955    -0.81800
O210        O  0.13227398  0.03324070  0.06780726    -0.66500
O211        O  0.16024390  0.04814785  0.14284190    -1.13100
C212        C  0.23764754  0.14598360  0.10807188     1.05100
O213        O  0.17956984  0.05377083  0.05021601    -0.79700
O214        O  0.22988802  0.08053046  0.08311804    -0.67300
Ni215      Ni  0.13203949  0.04161229  0.17236911     1.34900
C216        C  0.23462213  0.07334588  0.10707710     0.83800
O217        O  0.11437983  0.49912523  0.11264237    -0.80300
O218        O  0.10072558  0.50297298  0.15637448    -0.90500
C219        C  0.15063540  0.03476333  0.04885191     0.83400
O220        O  0.11411033  0.06329381  0.15598018    -0.68700
O221        O  0.22911165  0.13430969  0.08372960    -0.88000
C222        C  0.10683347  0.06471545  0.13105200     0.84200
C223        C  0.09676247  0.48801460  0.13361888     1.05800
H224        H  0.16627861  0.09523366  0.09869144     0.37600
O225        O  0.17608972  0.08288338  0.10021967    -1.10700
O226        O  0.22063368  0.07443351  0.12887061    -0.67300
Ni227      Ni  0.19282316  0.08950841  0.13698992     1.26300
O228        O  0.11493199  0.05391006  0.11064212    -0.67600
O229        O  0.22516728  0.13109924  0.13025557    -0.79900
C230        C  0.18955447  0.09131533  0.19491186     0.83600
O231        O  0.20706400  0.09410465  0.17462050    -0.67000
Ni232      Ni  0.20291297  0.09347253  0.06878138     1.27400
Ni233      Ni  0.14499615  0.04066296  0.10568714     1.26100
H234        H  0.16891995  0.03504728  0.14631250     0.38100
O235        O  0.07312456  0.40622189  0.81158862    -0.81800
O236        O  0.09377948  0.45474887  0.93420096    -0.66500
O237        O  0.10590854  0.43956753  0.85868540    -1.13100
C238        C  0.08539369  0.34157569  0.89335785     1.05100
O239        O  0.12069473  0.43430396  0.95116371    -0.79700
O240        O  0.14405003  0.40683759  0.91804317    -0.67300
Ni241      Ni  0.08264512  0.44447039  0.82986885     1.34900
C242        C  0.15639364  0.41408872  0.89407303     0.83800
O243        O  0.10777939  0.48866316  0.88862939    -0.80300
O244        O  0.09010384  0.48359689  0.84495066    -0.90500
C245        C  0.11058328  0.45311027  0.95299143     0.83400
O246        O  0.04325623  0.42287724  0.84752322    -0.68700
O247        O  0.08841370  0.35329713  0.91772387    -0.88000
C248        C  0.03524095  0.42223914  0.87271386     0.84200
C249        C  0.10062722  0.49902548  0.86755019     1.05800
H250        H  0.06596339  0.39259262  0.90308085     0.37600
O251        O  0.08818448  0.40524632  0.90145517    -1.10700
O252        O  0.14158377  0.41405517  0.87248796    -0.67300
Ni253      Ni  0.09817163  0.39850105  0.86457395     1.26300
O254        O  0.05481589  0.43307018  0.89241740    -0.67600
O255        O  0.08911824  0.35691990  0.87123615    -0.79900
C256        C  0.09089997  0.39534462  0.80702924     0.83600
O257        O  0.10715487  0.39371665  0.82645757    -0.67000
Ni258      Ni  0.10398479  0.39444064  0.93266550     1.27400
Ni259      Ni  0.09845666  0.44729616  0.89601072     1.26100
H260        H  0.12760519  0.45305634  0.85461294     0.38100
O261        O  0.07903641  0.15151417  0.80653877    -0.81800
O262        O  0.04162309  0.11911323  0.93331840    -0.66500
O263        O  0.05402078  0.14899373  0.85927506    -1.13100
C264        C  0.15182306  0.22713461  0.89554656     1.05100
O265        O  0.05959846  0.16570521  0.95222724    -0.79700
O266        O  0.08508527  0.21755691  0.92044021    -0.67300
Ni267      Ni  0.04815719  0.12034024  0.83001445     1.34900
C268        C  0.07905786  0.22336640  0.89634503     0.83800
O269        O  0.00575964  0.10151821  0.88889549    -0.80300
O270        O  0.01467638  0.08520523  0.84848780    -0.90500
C271        C  0.04229236  0.13639619  0.95302940     0.83400
O272        O  0.07819070  0.11166699  0.84491952    -0.68700
O273        O  0.14002645  0.21877480  0.91975558    -0.88000
C274        C  0.07643022  0.09979226  0.86856877     0.84200
C275        C  0.49825958  0.08110933  0.86879600     1.05800
H276        H  0.10228178  0.15527119  0.90343636     0.37600
O277        O  0.08948716  0.16461219  0.90202490    -1.10700
O278        O  0.08079243  0.20977954  0.87440933    -0.67300
Ni279      Ni  0.09573735  0.18181461  0.86574976     1.26300
O280        O  0.06166983  0.10342136  0.88864196    -0.67600
O281        O  0.13736042  0.21410906  0.87313120    -0.79900
C282        C  0.09449908  0.18089107  0.80667052     0.83600
O283        O  0.10078469  0.19709301  0.82872892    -0.67000
Ni284      Ni  0.09921383  0.19101360  0.93405688     1.27400
Ni285      Ni  0.04758067  0.13283342  0.89600308     1.26100
H286        H  0.04052402  0.15728317  0.85608105     0.38100
O287        O  0.42630832  0.07527938  0.19127406    -0.81800
O288        O  0.45594543  0.07503449  0.06283312    -0.66500
O289        O  0.44954128  0.09797505  0.13751557    -1.13100
C290        C  0.35035604  0.07662186  0.10696538     1.05100
O291        O  0.43903351  0.10472658  0.04554415    -0.79700
O292        O  0.41895703  0.13435760  0.07940926    -0.67300
Ni293      Ni  0.45997433  0.08054253  0.16796426     1.34900
C294        C  0.42409036  0.14581096  0.10381419     0.83800
O295        O  0.49502684  0.09491100  0.10453803    -0.80300
O296        O  0.49559007  0.08387942  0.14935242    -0.90500
C297        C  0.45537046  0.09182364  0.04358841     0.83400
O298        O  0.43539907  0.03901151  0.15578656    -0.68700
O299        O  0.36205335  0.08233897  0.08255077    -0.88000
C300        C  0.43087036  0.02661429  0.13185653     0.84200
C301        C  0.00732837  0.08929897  0.12605664     1.05800
H302        H  0.39817134  0.05372553  0.09522079     0.37600
O303        O  0.41142578  0.07589453  0.09676113    -1.10700
O304        O  0.42040094  0.12997408  0.12548258    -0.67300
Ni305      Ni  0.40716637  0.08757618  0.13367540     1.26300
O306        O  0.43836421  0.04237431  0.10948710    -0.67600
O307        O  0.36494519  0.07643067  0.12852346    -0.79900
C308        C  0.40967492  0.08779996  0.19238315     0.83600
O309        O  0.40372532  0.09866118  0.17117641    -0.67000
Ni310      Ni  0.40120167  0.09289237  0.06585223     1.27400
Ni311      Ni  0.45316870  0.08539684  0.10049720     1.26100
H312        H  0.46266414  0.12017544  0.13887546     0.38100
C313        C  0.02072808  0.12228196  0.97652073    -0.07100
C314        C  0.48777627  0.10887363  0.97021291    -0.18200
C315        C  0.46609823  0.09730817  0.99185747     0.10100
C316        C  0.47635220  0.09919955  0.01953990    -0.07000
C317        C  0.00919118  0.11466500  0.02593751    -0.18200
C318        C  0.03096057  0.12658417  0.00438983     0.10200
S319        S  0.42577734  0.08054549  0.98284087    -0.33200
S320        S  0.07137673  0.14719755  0.01377002    -0.33200
H321        H  0.08173019  0.13846951  0.98994357     0.28200
H322        H  0.41441595  0.05921894  0.00474799     0.28200
H323        H  0.47982584  0.10788438  0.94907063     0.18800
H324        H  0.01721318  0.11877060  0.04732186     0.18800
C325        C  0.07256548  0.24924350  0.89343692    -0.07100
C326        C  0.08170058  0.26652855  0.86880237    -0.18200
C327        C  0.08466368  0.29590013  0.86743925     0.10100
C328        C  0.07805140  0.30866101  0.89127205    -0.07000
C329        C  0.06572370  0.28979404  0.91484181    -0.18200
C330        C  0.06239900  0.26029140  0.91598856     0.10200
S331        S  0.09936760  0.31642202  0.83530501    -0.33200
S332        S  0.04474255  0.23787382  0.94677385    -0.33200
H333        H  0.03083766  0.20908380  0.93282302     0.28200
H334        H  0.12509007  0.34125958  0.84838506     0.28200
H335        H  0.08889494  0.25821628  0.85098961     0.18800
H336        H  0.05896161  0.29822784  0.93286741     0.18800
C337        C  0.10221538  0.02941944  0.86979574    -0.07100
C338        C  0.09177117  0.03662332  0.89439929    -0.18200
C339        C  0.08612491  0.06140656  0.89577396     0.10100
C340        C  0.08963369  0.07888241  0.87152219    -0.07000
C341        C  0.10294668  0.07332641  0.84780218    -0.18200
C342        C  0.10961266  0.04929798  0.84683275     0.10200
S343        S  0.07371907  0.06853032  0.92892260    -0.33200
S344        S  0.12710809  0.04496139  0.81545673    -0.33200
H345        H  0.14336542  0.53243248  0.82877227     0.28200
H346        H  0.09343274  0.10080809  0.92769044     0.28200
H347        H  0.08653031  0.02193860  0.91239745     0.18800
H348        H  0.10728371  0.08708477  0.82929056     0.18800
C349        C  0.11981322  0.47431386  0.97732709    -0.07100
C350        C  0.11609783  0.46193032  0.00407760    -0.18200
C351        C  0.12582046  0.48108042  0.02778710     0.10100
C352        C  0.13867755  0.01325590  0.02490090    -0.07000
C353        C  0.14235888  0.02566377  0.99825505    -0.18200
C354        C  0.13361935  0.50673301  0.97449706     0.10200
S355        S  0.12273626  0.46306330  0.06083924    -0.33200
S356        S  0.14316540  0.02566683  0.94137113    -0.33200
H357        H  0.15214296  0.50571137  0.92903638     0.28200
H358        H  0.15007544  0.48760572  0.07221130     0.28200
H359        H  0.10617274  0.43719585  0.00647350     0.18800
H360        H  0.15308654  0.05049431  0.99588701     0.18800
C361        C  0.08646891  0.07787205  0.12596787    -0.07100
C362        C  0.06619342  0.06699704  0.10305570    -0.18200
C363        C  0.04137282  0.07247518  0.10118588     0.10100
C364        C  0.03672453  0.08937309  0.12259673    -0.07000
C365        C  0.05878430  0.10285231  0.14385098    -0.18200
C366        C  0.08392493  0.09802456  0.14537975     0.10200
S367        S  0.01486139  0.05463086  0.07257278    -0.33200
S368        S  0.11168866  0.11821800  0.17273524    -0.33200
H369        H  0.13738173  0.12228243  0.15713583     0.28200
H370        H  0.98843880  0.04124402  0.08955704     0.28200
H371        H  0.06815858  0.05212486  0.08759891     0.18800
H372        H  0.05593082  0.11664745  0.15988826     0.18800
C373        C  0.25970481  0.06610075  0.10986216    -0.07100
C374        C  0.27888643  0.07751278  0.13339903    -0.18200
C375        C  0.30816457  0.08030714  0.13359995     0.10100
C376        C  0.31828889  0.07055447  0.11000179    -0.07000
C377        C  0.29775661  0.05638760  0.08762835    -0.18200
C378        C  0.26855255  0.05366806  0.08746258     0.10200
S379        S  0.33245703  0.09973592  0.16326197    -0.33200
S380        S  0.24386046  0.03446056  0.05790442    -0.33200
H381        H  0.21593048  0.02324722  0.07273784     0.28200
H382        H  0.35777661  0.12055055  0.14702337     0.28200
H383        H  0.27232789  0.08701709  0.15077563     0.18800
H384        H  0.30473221  0.04785213  0.06980808     0.18800
C385        C  0.50662070  0.40721715  0.12832411    -0.07100
C386        C  0.02648910  0.41199033  0.15210726    -0.18200
C387        C  0.05681643  0.43672567  0.15344657     0.10100
C388        C  0.06897384  0.45712528  0.13084501    -0.07000
C389        C  0.05198940  0.44966729  0.10597444    -0.18200
C390        C  0.02188445  0.42432132  0.10427402     0.10200
S391        S  0.07847126  0.44143266  0.18483349    -0.33200
S392        S  0.50113076  0.41879361  0.07129923    -0.33200
H393        H  0.48896473  0.38657500  0.07165481     0.28200
H394        H  0.10762339  0.45561403  0.17177238     0.28200
H395        H  0.01705217  0.39774074  0.17039077     0.18800
H396        H  0.06158724  0.46461183  0.08810654     0.18800
C397        C  0.31987669  0.23618113  0.10784684    -0.07100
C398        C  0.31153377  0.21839313  0.13213550    -0.18200
C399        C  0.28442083  0.18952031  0.13343406     0.10100
C400        C  0.26428054  0.17819205  0.11010408    -0.07000
C401        C  0.27137919  0.19741514  0.08679580    -0.18200
C402        C  0.29858000  0.22618864  0.08551158     0.10200
S403        S  0.27893936  0.16743943  0.16448692    -0.33200
S404        S  0.30463831  0.24892542  0.05475833    -0.33200
H405        H  0.32080322  0.27768903  0.06863307     0.28200
H406        H  0.27676538  0.14188460  0.14983186     0.28200
H407        H  0.32745113  0.22581350  0.14956188     0.18800
H408        H  0.25588869  0.18973601  0.06904823     0.18800
C409        C  0.41030469  0.43217376  0.12887954    -0.07100
C410        C  0.40319440  0.44352371  0.15289691    -0.18200
C411        C  0.40702861  0.47325677  0.15394607     0.10100
C412        C  0.41886948  0.49263898  0.13029340    -0.07000
C413        C  0.42329386  0.48009174  0.10550758    -0.18200
C414        C  0.41953949  0.45040094  0.10463357     0.10200
S415        S  0.39627571  0.48538751  0.18571012    -0.33200
S416        S  0.42993297  0.43856390  0.07277669    -0.33200
H417        H  0.44819507  0.42851564  0.08614943     0.28200
H418        H  0.39375142  0.96147598  0.20280229     0.28200
H419        H  0.39511658  0.42908631  0.17117161     0.18800
H420        H  0.43194200  0.49425098  0.08709366     0.18800
C421        C  0.43162133  0.17834612  0.10743448    -0.07100
C422        C  0.41883000  0.18539673  0.13048920    -0.18200
C423        C  0.41642569  0.21203464  0.13126810     0.10100
C424        C  0.42827520  0.23317681  0.10891830    -0.07000
C425        C  0.44395650  0.22761890  0.08724264    -0.18200
C426        C  0.44608724  0.20074011  0.08644738     0.10200
S427        S  0.39462483  0.21532081  0.15980877    -0.33200
S428        S  0.46756776  0.19639834  0.05820516    -0.33200
H429        H  0.47682941  0.17845178  0.07329331     0.28200
H430        H  0.37444150  0.21935413  0.14234193     0.28200
H431        H  0.40799342  0.16868609  0.14696298     0.18800
H432        H  0.45412546  0.24404268  0.07045562     0.18800
C433        C  0.18359680  0.25430452  0.89363196    -0.07100
C434        C  0.20536749  0.25894436  0.91431827    -0.18200
C435        C  0.23452518  0.28591058  0.91523384     0.10100
C436        C  0.24215354  0.30930852  0.89534583    -0.07000
C437        C  0.22117414  0.30385313  0.87372164    -0.18200
C438        C  0.19200986  0.27706279  0.87286029     0.10200
S439        S  0.26097112  0.28897989  0.94216379    -0.33200
S440        S  0.16557657  0.27524472  0.84650713    -0.33200
H441        H  0.14110132  0.26705064  0.86534201     0.28200
H442        H  0.28798070  0.30702208  0.92651956     0.28200
H443        H  0.19950205  0.24155041  0.93010868     0.18800
H444        H  0.22651012  0.32171868  0.85852829     0.18800
C445        C  0.41939339  0.48949247  0.87295728    -0.07100
C446        C  0.42638861  0.00652908  0.84819122    -0.18200
C447        C  0.45052177  0.03713346  0.84686666     0.10100
C448        C  0.46876029  0.05148530  0.87067631    -0.07000
C449        C  0.46065273  0.03546403  0.89590995    -0.18200
C450        C  0.43620026  0.00476333  0.89739626     0.10200
S451        S  0.45716658  0.05639319  0.81387722    -0.33200
S452        S  0.42880817  0.48698585  0.93109870    -0.33200
H453        H  0.39675560  0.47583493  0.92995423     0.28200
H454        H  0.46810963  0.08611691  0.82534993     0.28200
H455        H  0.41365938  0.49600988  0.82929710     0.18800
H456        H  0.47437582  0.04645512  0.91437358     0.18800
C457        C  0.24616651  0.42151927  0.89491096    -0.07100
C458        C  0.22895565  0.41342406  0.87009979    -0.18200
C459        C  0.20106841  0.41358940  0.86824379     0.10100
C460        C  0.18923987  0.42138637  0.89187862    -0.07000
C461        C  0.20785812  0.43206060  0.91591912    -0.18200
C462        C  0.23620576  0.43277321  0.91752882     0.10200
S463        S  0.18064674  0.40096443  0.83581448    -0.33200
S464        S  0.25825175  0.44812630  0.94914992    -0.33200
H465        H  0.28725087  0.46158589  0.93583408     0.28200
H466        H  0.17928157  0.42824413  0.83323826     0.28200
H467        H  0.23634046  0.40523298  0.85231640     0.18800
H468        H  0.19986352  0.43916674  0.93402806     0.18800
C469        C  0.43895126  0.39239263  0.88016950    -0.07100
C470        C  0.45928634  0.41162565  0.90102136    -0.18200
C471        C  0.49080553  0.42066209  0.90035471     0.10100
C472        C  0.00158384  0.40878735  0.87866650    -0.07000
C473        C  0.48132142  0.38935221  0.85856431    -0.18200
C474        C  0.44984972  0.37987094  0.85966286     0.10200
S475        S  0.51518262  0.44739324  0.92692852    -0.33200
S476        S  0.42476032  0.35263409  0.83363727    -0.33200
H477        H  0.39768744  0.34044055  0.84986725     0.28200
H478        H  0.02435467  0.42164293  0.93690067     0.28200
H479        H  0.45104829  0.42143047  0.91680001     0.18800
H480        H  0.48949565  0.38057867  0.84182637     0.18800
C481        C  0.36910050  0.38202951  0.98259290    -0.07100
C482        C  0.39803150  0.38368260  0.98005756    -0.18200
C483        C  0.40936480  0.37264258  0.00100133     0.10100
C484        C  0.39161566  0.35979096  0.02524365    -0.07000
C485        C  0.36348101  0.35923640  0.02838945    -0.18200
C486        C  0.35231638  0.37063047  0.00774996     0.10200
S487        S  0.44627480  0.37515921  0.99529956    -0.33200
S488        S  0.31701789  0.37072500  0.01545612    -0.33200
H489        H  0.32719823  0.39996121  0.00373631     0.28200
H490        H  0.44016790  0.34914514  0.01098264     0.28200
H491        H  0.41146393  0.39251745  0.96116431     0.18800
H492        H  0.35019553  0.35010796  0.04733494     0.17600
C493        C  0.39803658  0.08985677  0.22001232    -0.07100
C494        C  0.41604987  0.11709327  0.23533275    -0.18200
C495        C  0.41681778  0.11664184  0.26443643     0.10100
C496        C  0.39767871  0.08875476  0.27866233    -0.07000
C497        C  0.37682229  0.06243919  0.26325163    -0.18200
C498        C  0.37686700  0.06272510  0.23410125     0.10200
S499        S  0.44658939  0.15091782  0.28148059    -0.33200
S500        S  0.35193969  0.02699486  0.21584674    -0.33200
H501        H  0.35177949  0.04084654  0.19056673     0.28200
H502        H  0.45640035  0.13547928  0.29938273     0.28200
H503        H  0.43279591  0.13780672  0.22458450     0.18800
H504        H  0.36221918  0.04086226  0.27389599     0.18800
C505        C  0.10387676  0.19471110  0.72087638    -0.07100
C506        C  0.08609744  0.20451868  0.73573633    -0.18200
C507        C  0.08621561  0.20500601  0.76487861     0.10100
C508        C  0.10453627  0.19554178  0.77933922    -0.07000
C509        C  0.12538999  0.18987046  0.76437604    -0.18200
C510        C  0.12533582  0.18951824  0.73526136     0.10200
S511        S  0.05850075  0.21241554  0.78225978    -0.33200
S512        S  0.15031184  0.17851965  0.71756955    -0.33200
H513        H  0.15003631  0.19148677  0.69181208     0.28200
H514        H  0.07619227  0.22493375  0.80653957     0.28200
H515        H  0.06943456  0.20835141  0.72475905     0.18800
H516        H  0.13946223  0.18251329  0.77532818     0.18800
C517        C  0.02054348  0.12451656  0.52239629    -0.07100
C518        C  0.49001249  0.11431318  0.52745960    -0.18200
C519        C  0.46814022  0.10429815  0.50601038     0.10100
C520        C  0.47765921  0.10463321  0.47822224    -0.07000
C521        C  0.00818596  0.11384392  0.47325115    -0.18200
C522        C  0.03008774  0.12422612  0.49476351     0.10200
S523        S  0.42853495  0.09128344  0.51551295    -0.33200
S524        S  0.06984551  0.13755724  0.48548008    -0.33200
H525        H  0.07877096  0.13117264  0.51110849     0.28200
H526        H  0.41527339  0.06869281  0.49434205     0.28200
H527        H  0.48269160  0.11481094  0.54864819     0.18800
H528        H  0.01580191  0.11425365  0.45201240     0.18800
C529        C  0.08507152  0.37992971  0.72006004    -0.07100
C530        C  0.11441168  0.39373790  0.73250153    -0.18200
C531        C  0.11755382  0.39636433  0.76156886     0.10100
C532        C  0.09072955  0.38386432  0.77847052    -0.07000
C533        C  0.06166353  0.36578963  0.76579818    -0.18200
C534        C  0.05859441  0.36368085  0.73685093     0.10200
S535        S  0.15608136  0.41974654  0.77515038    -0.33200
S536        S  0.02008298  0.34265407  0.72245033    -0.33200
H537        H  0.02926484  0.33870547  0.69570388     0.28200
H538        H  0.14857626  0.43670418  0.79395979     0.28200
H539        H  0.13487748  0.40614775  0.71965856     0.18800
H540        H  0.04091601  0.35552575  0.77849327     0.18800
C541        C  0.06674751  0.30346834  0.60488350    -0.07100
C542        C  0.07305052  0.29340672  0.62990667    -0.18200
C543        C  0.07389499  0.26587303  0.63123906     0.10100
C544        C  0.06970553  0.24822687  0.60660565    -0.07000
C545        C  0.06044269  0.25682150  0.58227816    -0.18200
C546        C  0.05813787  0.28354938  0.58133625     0.10200
S547        S  0.08215292  0.25600338  0.66479387    -0.33200
S548        S  0.04392404  0.29060531  0.54944223    -0.33200
H549        H  0.02804452  0.30377567  0.56273004     0.28200
H550        H  0.05629438  0.22588442  0.66402775     0.28200
H551        H  0.07871926  0.30774194  0.64847956     0.18800
H552        H  0.05546952  0.24290207  0.56349961     0.18800
C553        C  0.08826030  0.02246581  0.62773319    -0.07100
C554        C  0.10029980  0.04400664  0.64967070    -0.18200
C555        C  0.09738525  0.07041789  0.65009537     0.10100
C556        C  0.08050008  0.07484769  0.62873726    -0.07000
C557        C  0.07080627  0.05461219  0.60562838    -0.18200
C558        C  0.07436435  0.02855211  0.60494151     0.10200
S559        S  0.11593998  0.09740133  0.67848221    -0.33200
S560        S  0.05779259  0.00246737  0.57571089    -0.33200
H561        H  0.04286525  0.47594805  0.59218752     0.28200
H562        H  0.12436435  0.12383209  0.66239274     0.28200
H563        H  0.11185007  0.04004523  0.66682245     0.18800
H564        H  0.05826775  0.05771120  0.58882751     0.18800
C565        C  0.20205042  0.10158606  0.22321248    -0.07100
C566        C  0.21609768  0.08679707  0.23629757    -0.18200
C567        C  0.21626290  0.08498574  0.26544111     0.10100
C568        C  0.20201259  0.09813559  0.28160456    -0.07000
C569        C  0.19233509  0.11676796  0.26854996    -0.18200
C570        C  0.19230081  0.11871321  0.23959752     0.10200
S571        S  0.23036280  0.06157830  0.28048552    -0.33200
S572        S  0.17623402  0.14052450  0.22468955    -0.33200
H573        H  0.19087353  0.14491719  0.19868132     0.28200
H574        H  0.24202108  0.07982402  0.30470725     0.28200
H575        H  0.22383488  0.07374064  0.22386893     0.18800
H576        H  0.18169578  0.12725286  0.28083666     0.18800
C577        C  0.12660663  0.00811074  0.47709180    -0.07100
C578        C  0.13364332  0.02043043  0.50415236    -0.18200
C579        C  0.12414698  0.50115747  0.52737639     0.10100
C580        C  0.10617484  0.46874194  0.52359054    -0.07000
C581        C  0.09857379  0.45644214  0.49657302    -0.18200
C582        C  0.10903929  0.47566986  0.47334832     0.10200
S583        S  0.13797356  0.01935364  0.56084188    -0.33200
S584        S  0.10156056  0.45709444  0.43973359    -0.33200
H585        H  0.13093540  0.47778707  0.42878924     0.28200
H586        H  0.14284832  0.49605212  0.57150613     0.28200
H587        H  0.14776074  0.04524463  0.50718569     0.18800
H588        H  0.08544560  0.43156696  0.49352937     0.18800
C589        C  0.08522213  0.08058600  0.37344237    -0.07100
C590        C  0.07867996  0.09194394  0.34925269    -0.18200
C591        C  0.05417052  0.09791515  0.34818888     0.10100
C592        C  0.03491589  0.09181610  0.37170543    -0.07000
C593        C  0.04361393  0.08415536  0.39684917    -0.18200
C594        C  0.06889750  0.07923237  0.39815072     0.10200
S595        S  0.04769809  0.11296535  0.31642870    -0.33200
S596        S  0.07863886  0.07115044  0.43186634    -0.33200
H597        H  0.11079322  0.08945879  0.42770565     0.28200
H598        H  0.57387195  0.11734814  0.30170314     0.28200
H599        H  0.09182198  0.09475101  0.33045898     0.18800
H600        H  0.02990160  0.08073029  0.41542672     0.18800
C601        C  0.31571173  0.07094331  0.39229207    -0.07100
C602        C  0.29446422  0.05261490  0.41289690    -0.18200
C603        C  0.26415201  0.04737293  0.41327247     0.10100
C604        C  0.25482013  0.06115315  0.39289132    -0.07000
C605        C  0.27526568  0.07740441  0.37111543    -0.18200
C606        C  0.30557076  0.08288789  0.37082432     0.10200
S607        S  0.23853186  0.02304396  0.44025443    -0.33200
S608        S  0.33094000  0.10835830  0.34432392    -0.33200
H609        H  0.35501954  0.12640173  0.36311873     0.28200
H610        H  0.21108227  0.01323525  0.42506047     0.28200
H611        H  0.30163851  0.04259885  0.42905477     0.18800
H612        H  0.26863307  0.08853180  0.35556413     0.18800
C613        C  0.40301379  0.29027861  0.28084902    -0.07100
C614        C  0.43206206  0.30166892  0.26819934    -0.18200
C615        C  0.43504263  0.30233236  0.23920006     0.10100
C616        C  0.40852431  0.29195914  0.22229935    -0.07000
C617        C  0.37919573  0.27669092  0.23486489    -0.18200
C618        C  0.37619845  0.27564431  0.26400796     0.10200
S619        S  0.47357792  0.31997001  0.22483321    -0.33200
S620        S  0.33785811  0.25926204  0.27841590    -0.33200
H621        H  0.34526427  0.25084292  0.30380068     0.28200
H622        H  0.46436254  0.30545720  0.19856715     0.28200
H623        H  0.45281245  0.31286945  0.28089467     0.18800
H624        H  0.35866608  0.26855443  0.22210886     0.18800
C625        C  0.39811699  0.42895204  0.37880804    -0.07100
C626        C  0.38555193  0.43816655  0.35745742    -0.18200
C627        C  0.39116537  0.46852369  0.35610918     0.10100
C628        C  0.41120467  0.49092701  0.37578245    -0.07000
C629        C  0.42116195  0.48094576  0.39865006    -0.18200
C630        C  0.41499218  0.45040758  0.40028767     0.10200
S631        S  0.37208529  0.47706345  0.32875562    -0.33200
S632        S  0.43234944  0.44151289  0.42864820    -0.33200
H633        H  0.44442694  0.42738587  0.41149949     0.28200
H634        H  0.36883998  0.99922617  0.34440110     0.28200
H635        H  0.37190338  0.42174264  0.34123323     0.18800
H636        H  0.43602338  0.49756134  0.41424725     0.18800
C637        C  0.43156021  0.23881261  0.39513768    -0.07100
C638        C  0.42428911  0.22138831  0.37032619    -0.18200
C639        C  0.42406233  0.19328141  0.36881807     0.10100
C640        C  0.43036072  0.18123907  0.39291490    -0.07000
C641        C  0.44064888  0.20020835  0.41688440    -0.18200
C642        C  0.44195668  0.22886314  0.41810660     0.10200
S643        S  0.41362047  0.17339965  0.33586751    -0.33200
S644        S  0.45674792  0.25109087  0.44982860    -0.33200
H645        H  0.47174884  0.27985520  0.43636487     0.28200
H646        H  0.44006969  0.17031386  0.33568062     0.28200
H647        H  0.41709821  0.22881220  0.35215410     0.18800
H648        H  0.44694797  0.19227137  0.43528116     0.18800
C649        C  0.05537957  0.45899325  0.37271417    -0.07100
C650        C  0.04583766  0.43665303  0.35148037    -0.18200
C651        C  0.01629537  0.41031865  0.35170863     0.10100
C652        C  0.49467253  0.40699815  0.37263631    -0.07000
C653        C  0.00577640  0.42786917  0.39554921    -0.18200
C654        C  0.03537294  0.45402815  0.39538728     0.10200
S655        S  0.00761314  0.38205621  0.32439941    -0.33200
S656        S  0.04489471  0.48185519  0.42315524    -0.33200
H657        H  0.05566638  0.50702982  0.40503476     0.28200
H658        H  0.48884460  0.35638420  0.34134038     0.28200
H659        H  0.06151972  0.43981798  0.33451202     0.18800
H660        H  0.49011660  0.42572852  0.41202771     0.18800
C661        C  0.31881252  0.22700974  0.39750497    -0.07100
C662        C  0.31427325  0.20444046  0.41706979    -0.18200
C663        C  0.28772333  0.17543340  0.41713464     0.10100
C664        C  0.26372913  0.16844057  0.39788560    -0.07000
C665        C  0.26827701  0.19052495  0.37770604    -0.18200
C666        C  0.29547412  0.21973299  0.37735429     0.10200
S667        S  0.28739447  0.14760418  0.44091518    -0.33200
S668        S  0.29837717  0.24677426  0.35143388    -0.33200
H669        H  0.31229564  0.27266344  0.36937685     0.28200
H670        H  0.27745910  0.12413138  0.42054961     0.28200
H671        H  0.33232740  0.20884988  0.43193032     0.18800
H672        H  0.25029976  0.18526691  0.36251271     0.18800
C673        C  0.29913018  0.39762894  0.72320774    -0.07100
C674        C  0.30891654  0.42449805  0.73944004    -0.18200
C675        C  0.30964964  0.42363715  0.76853121     0.10100
C676        C  0.30142600  0.39556281  0.78187329    -0.07000
C677        C  0.28851782  0.36816129  0.76594169    -0.18200
C678        C  0.28665793  0.36885468  0.73678616     0.10200
S679        S  0.32462302  0.45966532  0.78750256    -0.33200
S680        S  0.27235558  0.33297191  0.71782718    -0.33200
H681        H  0.25531354  0.33963905  0.69875210     0.28200
H682        H  0.30943123  0.44628109  0.81263106     0.28200
H683        H  0.31828719  0.44669518  0.72931773     0.18800
H684        H  0.28224492  0.34648406  0.77597746     0.18800
C685        C  0.18284908  0.25219942  0.61020029    -0.07100
C686        C  0.20306991  0.25911580  0.58748991    -0.18200
C687        C  0.23125255  0.28706697  0.58635873     0.10100
C688        C  0.23949887  0.30855861  0.60851872    -0.07000
C689        C  0.22116882  0.30004236  0.63259502    -0.18200
C690        C  0.19273911  0.27255149  0.63351425     0.10200
S691        S  0.25635233  0.29506572  0.55657006    -0.33200
S692        S  0.16895789  0.26710778  0.66365085    -0.33200
H693        H  0.14375670  0.26346647  0.64775947     0.28200
H694        H  0.23731624  0.26747170  0.54178757     0.28200
H695        H  0.19614119  0.24310375  0.57005182     0.18800
H696        H  0.22756788  0.31619630  0.64990202     0.18800
C697        C  0.41177066  0.49626162  0.62575166    -0.07100
C698        C  0.43261773  0.00564399  0.60342337    -0.18200
C699        C  0.45788164  0.03564379  0.60226649     0.10100
C700        C  0.46232886  0.05701369  0.62369686    -0.07000
C701        C  0.44002517  0.04849355  0.64471174    -0.18200
C702        C  0.41456957  0.01838471  0.64590208     0.10200
S703        S  0.48601869  0.04379081  0.57532571    -0.33200
S704        S  0.38639354  0.50874923  0.67338612    -0.33200
H705        H  0.39905278  0.53863311  0.68499812     0.28200
H706        H  0.48347785  0.06862361  0.56526159     0.28200
H707        H  0.43065186  0.48910861  0.58769290     0.18800
H708        H  0.44344418  0.06512306  0.66094623     0.18800
C709        C  0.23236887  0.41544130  0.61284767    -0.07100
C710        C  0.22786077  0.43267631  0.59238679    -0.18200
C711        C  0.20013178  0.43317855  0.59075585     0.10100
C712        C  0.17633568  0.41608928  0.61006832    -0.07000
C713        C  0.18207939  0.40158381  0.63222502    -0.18200
C714        C  0.20950784  0.40063924  0.63362032     0.10200
S715        S  0.19531858  0.45541557  0.56385599    -0.33200
S716        S  0.21200418  0.37708362  0.66045070    -0.33200
H717        H  0.21906066  0.35975158  0.64166525     0.28200
H718        H  0.22557384  0.46910483  0.55312978     0.28200
H719        H  0.24565968  0.44471216  0.57689235     0.18800
H720        H  0.16397686  0.38850621  0.64724320     0.18800
C721        C  0.43135611  0.39584134  0.62280844    -0.07100
C722        C  0.43968918  0.38338918  0.64482857    -0.18200
C723        C  0.46869355  0.38577049  0.64578907     0.10100
C724        C  0.99120008  0.40233500  0.62620135    -0.07000
C725        C  0.48110769  0.41158449  0.60115895    -0.18200
C726        C  0.45177819  0.40869388  0.59999946     0.10200
S727        S  0.47586705  0.36751334  0.67468355    -0.33200
S728        S  0.44332957  0.42472957  0.57020339    -0.33200
H729        H  0.43255399  0.44121171  0.58599186     0.28200
H730        H  0.99504618  0.35930755  0.66120410     0.28200
H731        H  0.42367287  0.37235010  0.66188276     0.18800
H732        H  0.99740342  0.42282653  0.58553183     0.18800
C733        C  0.35737129  0.38041860  0.52177545    -0.07100
C734        C  0.34124425  0.34871752  0.51529135    -0.18200
C735        C  0.35153899  0.33603490  0.49454653     0.10100
C736        C  0.37912248  0.35566898  0.47960360    -0.07000
C737        C  0.39538679  0.38741160  0.48645424    -0.18200
C738        C  0.38460750  0.40002405  0.50683613     0.10200
S739        S  0.32838535  0.29487735  0.48748719    -0.33200
S740        S  0.40577451  0.44142519  0.51169766    -0.33200
H741        H  0.37958742  0.44406429  0.51758611     0.28200
H742        H  0.30548531  0.28775918  0.50784184     0.28200
H743        H  0.32051600  0.33367440  0.52692083     0.18800
H744        H  0.41664190  0.40269364  0.47565932     0.18800
O745        O  0.31649858  0.87907286  0.54823690    -0.81800
O746        O  0.29244043  0.88804236  0.67376907    -0.66500
O747        O  0.32049364  0.91098114  0.59879222    -1.13100
C748        C  0.40324150  0.89808192  0.62621316     1.05100
O749        O  0.33933491  0.91923052  0.69047376    -0.79700
O750        O  0.38424745  0.95254839  0.65420826    -0.67300
Ni751      Ni  0.29283600  0.89423205  0.56799346     1.34900
C752        C  0.39071771  0.96260538  0.62959183     0.83800
O753        O  0.27203309  0.90752758  0.63123890    -0.80300
O754        O  0.26662476  0.90770754  0.58473270    -0.90500
C755        C  0.31049479  0.90142276  0.69417865     0.83400
O756        O  0.26700986  0.85362961  0.58187661    -0.68700
O757        O  0.39881641  0.90660396  0.65009872    -0.88000
C758        C  0.26358720  0.84133625  0.60553321     0.84200
C759        C  0.25893477  0.91026523  0.60959576     1.05800
H760        H  0.33074361  0.86953369  0.64137281     0.37600
O761        O  0.33878893  0.89144401  0.63907515    -1.10700
O762        O  0.38178584  0.94494044  0.60824082    -0.67300
Ni763      Ni  0.35290360  0.90165150  0.60156133     1.26300
O764        O  0.27808451  0.85636356  0.62716645    -0.67600
O765        O  0.38520975  0.89226341  0.60562506    -0.79900
C766        C  0.34562077  0.89119149  0.54518639     0.83600
O767        O  0.36417142  0.90971157  0.56329223    -0.67000
Ni768      Ni  0.36756112  0.91206519  0.66851497     1.27400
Ni769      Ni  0.30529500  0.89926636  0.63584636     1.26100
H770        H  0.32940600  0.93313992  0.59778671     0.38100
O771        O  0.38155365  0.81555525  0.45390024    -0.81800
O772        O  0.39566463  0.78745369  0.33032050    -0.66500
O773        O  0.41417573  0.82037464  0.40438338    -1.13100
C774        C  0.39768603  0.89923172  0.37534880     1.05100
O775        O  0.41049400  0.83199980  0.30855287    -0.79700
O776        O  0.44968789  0.87464782  0.34606100    -0.67300
Ni777      Ni  0.40114280  0.79487415  0.43623820     1.34900
C778        C  0.46073694  0.88536384  0.37003562     0.83800
O779        O  0.41859151  0.77429873  0.37494029    -0.80300
O780        O  0.41928666  0.77165679  0.42161326    -0.90500
C781        C  0.40264559  0.80358226  0.30837955     0.83400
O782        O  0.36197634  0.76420156  0.42251191    -0.68700
O783        O  0.40875814  0.89541388  0.35278034    -0.88000
C784        C  0.34928653  0.75625638  0.39871808     0.84200
C785        C  0.42345591  0.76372756  0.39733906     1.05800
H786        H  0.36824279  0.82185388  0.36055500     0.37600
O787        O  0.39046213  0.83252426  0.36282711    -1.10700
O788        O  0.44347532  0.88026220  0.39141110    -0.67300
Ni789      Ni  0.40074875  0.84951631  0.39986518     1.26300
O790        O  0.36237667  0.77074101  0.37650716    -0.67600
O791        O  0.38787584  0.87934645  0.39459119    -0.79900
C792        C  0.39083151  0.84426068  0.45621718     0.83600
O793        O  0.40853063  0.86293954  0.43786220    -0.67000
Ni794      Ni  0.40898600  0.86160730  0.33326320     1.27400
Ni795      Ni  0.40423078  0.80291519  0.36797628     1.26100
H796        H  0.43649900  0.83142467  0.40555394     0.38100
O797        O  0.16993314  0.54561461  0.45228364    -0.81800
O798        O  0.20349576  0.58918299  0.33023664    -0.66500
O799        O  0.17045471  0.57779773  0.40378473    -1.13100
C800        C  0.08540709  0.98768306  0.37002361     1.05100
O801        O  0.15798574  0.56991116  0.30870297    -0.79700
O802        O  0.11679844  0.56741291  0.34655237    -0.67300
Ni803      Ni  0.19596910  0.58557548  0.43568707     1.34900
C804        C  0.10568766  0.56682193  0.37052039     0.83800
O805        O  0.22210737  0.62469093  0.37570323    -0.80300
O806        O  0.22445497  0.62630479  0.42249083    -0.90500
C807        C  0.18741155  0.58502510  0.30858886     0.83400
O808        O  0.22217484  0.57121732  0.42118449    -0.68700
O809        O  0.09031950  0.00380049  0.34827314    -0.88000
C810        C  0.22797274  0.56559541  0.39675368     0.84200
C811        C  0.23473724  0.63812630  0.39865008     1.05800
H812        H  0.16141042  0.52887650  0.35700502     0.37600
O813        O  0.15386271  0.54301924  0.36039605    -1.10700
O814        O  0.10957742  0.55280660  0.39076688    -0.67300
Ni815      Ni  0.13739637  0.53674590  0.39722962     1.26300
O816        O  0.21421453  0.56712364  0.37516345    -0.67600
O817        O  0.10482790  0.99583352  0.38963558    -0.79900
C818        C  0.14058180  0.52948936  0.45362849     0.83600
O819        O  0.12354273  0.53056642  0.43481208    -0.67000
Ni820      Ni  0.12615902  0.53796852  0.33092792     1.27400
Ni821      Ni  0.18801125  0.58399336  0.36745030     1.26100
H822        H  0.16204141  0.59139013  0.40571004     0.38100
O823        O  0.10887478  0.92956623  0.54813426    -0.81800
O824        O  0.09377498  0.88606000  0.67112093    -0.66500
O825        O  0.07595612  0.89922246  0.59708999    -1.13100
C826        C  0.08793562  0.99287249  0.63058971     1.05100
O827        O  0.06972816  0.90789810  0.69235668    -0.79700
O828        O  0.03461582  0.91616207  0.65501158    -0.67300
Ni829      Ni  0.09373698  0.88991902  0.56575616     1.34900
C830        C  0.02495850  0.91514401  0.63046172     0.83800
O831        O  0.07387852  0.84994993  0.62591321    -0.80300
O832        O  0.08006109  0.84910706  0.57966039    -0.90500
C833        C  0.08263221  0.89155230  0.69271431     0.83400
O834        O  0.13393775  0.90448161  0.58091662    -0.68700
O835        O  0.07741404  0.97804730  0.65312282    -0.88000
C836        C  0.14425241  0.90904087  0.60562582     0.84200
C837        C  0.07334317  0.83598287  0.60332763     1.05800
H838        H  0.11747616  0.94691614  0.64370185     0.37600
O839        O  0.09547360  0.93415009  0.64050055    -1.10700
O840        O  0.04324936  0.92685775  0.60981817    -0.67300
Ni841      Ni  0.08665856  0.94112010  0.60348472     1.26300
O842        O  0.12768006  0.90551363  0.62691173    -0.67600
O843        O  0.09706705  0.98282527  0.61054245    -0.79900
C844        C  0.09738924  0.94717751  0.54697116     0.83600
O845        O  0.07990465  0.94752734  0.56591084    -0.67000
Ni846      Ni  0.07455548  0.94195228  0.67027506     1.27400
Ni847      Ni  0.08494566  0.89198807  0.63380201     1.26100
H848        H  0.05381475  0.88668152  0.59462838     0.38100
O849        O  0.06107908  0.66665869  0.54671899    -0.81800
O850        O  0.09788344  0.69685638  0.67211511    -0.66500
O851        O  0.08819203  0.66454940  0.59820199    -1.13100
C852        C  0.49221220  0.58573569  0.62748568     1.05100
O853        O  0.07612556  0.65102720  0.69269578    -0.79700
O854        O  0.06722644  0.60620377  0.65615544    -0.67300
Ni855      Ni  0.09944681  0.69141731  0.56680579     1.34900
C856        C  0.06861644  0.59678251  0.63188527     0.83800
O857        O  0.13599171  0.71198584  0.62917742    -0.80300
O858        O  0.13921464  0.71900405  0.58298918    -0.90500
C859        C  0.09224231  0.68035489  0.69350878     0.83400
O860        O  0.08370791  0.71690162  0.58012498    -0.68700
O861        O  0.00607084  0.58936123  0.65148303    -0.88000
C862        C  0.07825621  0.72358894  0.60428964     0.84200
C863        C  0.15083101  0.72580295  0.60740261     1.05800
H864        H  0.03868113  0.65974136  0.64223078     0.37600
O865        O  0.05133547  0.65030115  0.63986544    -1.10700
O866        O  0.05820422  0.60364682  0.61055353    -0.67300
Ni867      Ni  0.04579208  0.63400153  0.60286488     1.26300
O868        O  0.08102762  0.71108943  0.62612666    -0.67600
O869        O  0.00348554  0.60395098  0.60829805    -0.79900
C870        C  0.04249647  0.63763302  0.54577156     0.83600
O871        O  0.04078380  0.62013893  0.56531212    -0.67000
Ni872      Ni  0.04212258  0.62200087  0.66980205     1.27400
Ni873      Ni  0.09367525  0.68154472  0.63490590     1.26100
H874        H  0.10041807  0.65455247  0.59684554     0.38100
O875        O  0.43990493  0.60989197  0.45268832    -0.81800
O876        O  0.40109739  0.59879393  0.32781118    -0.66500
O877        O  0.41003937  0.57838345  0.40251603    -1.13100
C878        C  0.00420818  0.58974753  0.36974701     1.05100
O879        O  0.41436482  0.56574964  0.31119629    -0.79700
O880        O  0.42840755  0.53397386  0.34620273    -0.67300
Ni881      Ni  0.40070476  0.59601579  0.43389442     1.34900
C882        C  0.42546665  0.52474443  0.37104574     0.83800
O883        O  0.36300489  0.57978344  0.37219140    -0.80300
O884        O  0.36026951  0.58312107  0.41877563    -0.90500
C885        C  0.40448403  0.58433932  0.30747539     0.83400
O886        O  0.41629798  0.63671542  0.41968303    -0.68700
O887        O  0.48945781  0.58010970  0.34641322    -0.88000
C888        C  0.42220880  0.64814749  0.39541263     0.84200
C889        C  0.34833365  0.57826421  0.39446906     1.05800
H890        H  0.45952285  0.61820373  0.35702664     0.37600
O891        O  0.44567647  0.59640564  0.36016555    -1.10700
O892        O  0.43581024  0.54333544  0.39172895    -0.67300
Ni893      Ni  0.45161279  0.58717336  0.39727022     1.26300
O894        O  0.41989311  0.63217026  0.37376172    -0.67600
O895        O  0.49308163  0.59592379  0.39072541    -0.79900
C896        C  0.45652527  0.59725631  0.45429965     0.83600
O897        O  0.45695132  0.58008708  0.43498982    -0.67000
Ni898      Ni  0.45144835  0.57397698  0.33048041     1.27400
Ni899      Ni  0.40454628  0.58884069  0.36567390     1.26100
H900        H  0.39661863  0.55629240  0.40420520     0.38100
O901        O  0.34348255  0.90478232  0.80942683    -0.81800
O902        O  0.37394328  0.90553606  0.93844400    -0.66500
O903        O  0.34341980  0.88475241  0.86386656    -1.13100
C904        C  0.27135598  0.91395901  0.89744696     1.05100
O905        O  0.32693726  0.87771876  0.95563692    -0.79700
O906        O  0.27600896  0.85248213  0.92312093    -0.67300
Ni907      Ni  0.37263257  0.90307934  0.83416726     1.34900
C908        C  0.26883371  0.84112002  0.89873344     0.83800
O909        O  0.38964996  0.88280979  0.89580154    -0.80300
O910        O  0.40592847  0.90251533  0.85365967    -0.90500
C911        C  0.35611816  0.88959374  0.95796873     0.83400
O912        O  0.38574594  0.94393800  0.84711496    -0.68700
O913        O  0.27710201  0.90748261  0.92153285    -0.88000
C914        C  0.39709914  0.95528039  0.87090129     0.84200
C915        C  0.40938260  0.89176558  0.87632757     1.05800
H916        H  0.34098477  0.93097071  0.90715377     0.37600
O917        O  0.33033441  0.90869035  0.90545767    -1.10700
O918        O  0.28196297  0.85645419  0.87695184    -0.67300
Ni919      Ni  0.31361645  0.89823366  0.86878009     1.26300
O920        O  0.39133682  0.93821268  0.89219171    -0.67600
O921        O  0.28466146  0.91222479  0.87527371    -0.79900
C922        C  0.31482860  0.89601066  0.80928201     0.83600
O923        O  0.29847604  0.88864961  0.83121405    -0.67000
Ni924      Ni  0.30328908  0.89324227  0.93684626     1.27400
Ni925      Ni  0.36004337  0.89586727  0.90088472     1.26100
H926        H  0.33300984  0.86252117  0.86171491     0.38100
O927        O  0.42602332  0.83510139  0.19369490    -0.81800
O928        O  0.41894968  0.86506840  0.06681055    -0.66500
O929        O  0.40105687  0.83642227  0.14160191    -1.13100
C930        C  0.42278662  0.75956788  0.10641954     1.05100
O931        O  0.38986530  0.81792474  0.04932845    -0.79700
O932        O  0.36503211  0.76665292  0.08104170    -0.67300
Ni933      Ni  0.42323173  0.86504031  0.17097915     1.34900
C934        C  0.35260480  0.76165825  0.10494797     0.83800
O935        O  0.40030101  0.88325510  0.11111391    -0.80300
O936        O  0.42227373  0.89887711  0.15296026    -0.90500
C937        C  0.40155087  0.84709974  0.04784454     0.83400
O938        O  0.46253425  0.87619332  0.15570589    -0.68700
O939        O  0.41988832  0.76771826  0.08201355    -0.88000
C940        C  0.47256205  0.88673622  0.13165212     0.84200
C941        C  0.41058892  0.90284677  0.13096553     1.05800
H942        H  0.44378759  0.83031484  0.09793747     0.37600
O943        O  0.42154400  0.82072776  0.09922964    -1.10700
O944        O  0.36738079  0.77582006  0.12684493    -0.67300
Ni945      Ni  0.41017771  0.80392920  0.13567576     1.26300
O946        O  0.45429335  0.88192701  0.11140980    -0.67600
O947        O  0.41997970  0.77210199  0.12864107    -0.79900
C948        C  0.41148491  0.80575160  0.19454570     0.83600
O949        O  0.39941501  0.78899079  0.17305255    -0.67000
Ni950      Ni  0.40560856  0.79407253  0.06736192     1.27400
Ni951      Ni  0.41098319  0.85210152  0.10454348     1.26100
H952        H  0.37914947  0.82794177  0.14474403     0.38100
O953        O  0.16051777  0.57935502  0.19175872    -0.81800
O954        O  0.13235005  0.53336474  0.06777648    -0.66500
O955        O  0.16029707  0.54828497  0.14282185    -1.13100
C956        C  0.23768100  0.64614851  0.10805478     1.05100
O957        O  0.17964271  0.55394314  0.05017681    -0.79700
O958        O  0.22995335  0.58073698  0.08308931    -0.67300
Ni959      Ni  0.13205787  0.54173618  0.17232260     1.34900
C960        C  0.23468676  0.57353139  0.10703966     0.83800
O961        O  0.11428452  0.99900282  0.11268416    -0.80300
O962        O  0.10072249  0.00281981  0.15646234    -0.90500
C963        C  0.15071592  0.53489991  0.04882129     0.83400
O964        O  0.11420662  0.56348623  0.15592184    -0.68700
O965        O  0.22911850  0.63448136  0.08371370    -0.88000
C966        C  0.10690387  0.56485776  0.13099101     0.84200
C967        C  0.09671559  0.98787576  0.13369054     1.05800
H968        H  0.16630709  0.59536192  0.09868219     0.37600
O969        O  0.17613477  0.58302636  0.10020314    -1.10700
O970        O  0.22069114  0.57459112  0.12884163    -0.67300
Ni971      Ni  0.19287089  0.58965487  0.13697756     1.26300
O972        O  0.11497057  0.55399983  0.11060037    -0.67600
O973        O  0.22521844  0.63125438  0.13024092    -0.79900
C974        C  0.18957691  0.59142760  0.19492168     0.83600
O975        O  0.20710066  0.59425046  0.17462581    -0.67000
Ni976      Ni  0.20295077  0.59364463  0.06875735     1.27400
Ni977      Ni  0.14506614  0.54079456  0.10565861     1.26100
H978        H  0.16897808  0.53519099  0.14630411     0.38100
O979        O  0.07322630  0.90624833  0.81151261    -0.81800
O980        O  0.09380726  0.95475747  0.93415127    -0.66500
O981        O  0.10595644  0.93957640  0.85864083    -1.13100
C982        C  0.08541566  0.84157765  0.89333052     1.05100
O983        O  0.12070271  0.93429841  0.95112965    -0.79700
O984        O  0.14406679  0.90683234  0.91802613    -0.67300
Ni985      Ni  0.08267551  0.94445874  0.82982959     1.34900
C986        C  0.15642451  0.91410777  0.89406291     0.83800
O987        O  0.10783510  0.98867924  0.88858042    -0.80300
O988        O  0.09006089  0.98355270  0.84493423    -0.90500
C989        C  0.11058269  0.95309670  0.95295665     0.83400
O990        O  0.04329170  0.92279180  0.84748511    -0.68700
O991        O  0.08841798  0.85329678  0.91769430    -0.88000
C992        C  0.03528156  0.92220549  0.87267088     0.84200
C993        C  0.10061646  0.99900567  0.86751750     1.05800
H994        H  0.06599136  0.89260447  0.90302764     0.37600
O995        O  0.08821371  0.90525449  0.90141174    -1.10700
O996        O  0.14162612  0.91408343  0.87247468    -0.67300
Ni997      Ni  0.09822112  0.89851134  0.86453801     1.26300
O998        O  0.05486583  0.93310075  0.89236314    -0.67600
O999        O  0.08917231  0.85692998  0.87120732    -0.79900
C1000       C  0.09099604  0.89535710  0.80698460     0.83600
O1001       O  0.10723268  0.89372905  0.82643005    -0.67000
Ni1002     Ni  0.10399477  0.89443972  0.93263187     1.27400
Ni1003     Ni  0.09850017  0.94730842  0.89596478     1.26100
H1004       H  0.12765154  0.95306819  0.85456430     0.38100
O1005       O  0.07904973  0.65152019  0.80655575    -0.81800
O1006       O  0.04161669  0.61909047  0.93332225    -0.66500
O1007       O  0.05401372  0.64897086  0.85928430    -1.13100
C1008       C  0.15178850  0.72713382  0.89558532     1.05100
O1009       O  0.05955003  0.66567998  0.95223073    -0.79700
O1010       O  0.08504431  0.71754086  0.92045474    -0.67300
Ni1011     Ni  0.04817455  0.62032820  0.83002036     1.34900
C1012       C  0.07901625  0.72334354  0.89635693     0.83800
O1013       O  0.00576566  0.60147035  0.88889337    -0.80300
O1014       O  0.01469896  0.58517514  0.84848252    -0.90500
C1015       C  0.04224521  0.63637157  0.95301500     0.83400
O1016       O  0.07822243  0.61167708  0.84492896    -0.68700
O1017       O  0.13998781  0.71876731  0.91979206    -0.88000
C1018       C  0.07647372  0.59981372  0.86858170     0.84200
C1019       C  0.49824629  0.58124866  0.86887927     1.05800
H1020       H  0.10227464  0.65527609  0.90346028     0.37600
O1021       O  0.08946865  0.66460406  0.90204452    -1.10700
O1022       O  0.08075191  0.70975184  0.87442560    -0.67300
Ni1023     Ni  0.09572063  0.68180626  0.86577255     1.26300
O1024       O  0.06169800  0.60342536  0.88865104    -0.67600
O1025       O  0.13733299  0.71411069  0.87316700    -0.79900
C1026       C  0.09450416  0.68089761  0.80669585     0.83600
O1027       O  0.10077442  0.69709177  0.82875672    -0.67000
Ni1028     Ni  0.09917226  0.69099900  0.93407894     1.27400
Ni1029     Ni  0.04757441  0.63280808  0.89600956     1.26100
H1030       H  0.04050820  0.65724966  0.85608834     0.38100
O1031       O  0.42602626  0.57504968  0.19117373    -0.81800
O1032       O  0.45602004  0.57500161  0.06291342    -0.66500
O1033       O  0.44949937  0.59797298  0.13752274    -1.13100
C1034       C  0.35037987  0.57668569  0.10690909     1.05100
O1035       O  0.43897906  0.60450295  0.04540117    -0.79700
O1036       O  0.41908571  0.63433175  0.07927988    -0.67300
Ni1037     Ni  0.45991147  0.58058897  0.16802364     1.34900
C1038       C  0.42416048  0.64580192  0.10368102     0.83800
O1039       O  0.49504098  0.59494054  0.10464194    -0.80300
O1040       O  0.49568851  0.58416683  0.14951989    -0.90500
C1041       C  0.45546430  0.59174734  0.04362806     0.83400
O1042       O  0.43560046  0.53903603  0.15582950    -0.68700
O1043       O  0.36210074  0.58240663  0.08250354    -0.88000
C1044       C  0.43100120  0.52663852  0.13189755     0.84200
C1045       C  0.00737846  0.58938437  0.12597190     1.05800
H1046       H  0.39817773  0.55368647  0.09521556     0.37600
O1047       O  0.41142457  0.57585802  0.09673723    -1.10700
O1048       O  0.42038818  0.62996842  0.12537289    -0.67300
Ni1049     Ni  0.40714522  0.58758342  0.13363937     1.26300
O1050       O  0.43838945  0.54238287  0.10952798    -0.67600
O1051       O  0.36493250  0.57644075  0.12847011    -0.79900
C1052       C  0.40951804  0.58770634  0.19231803     0.83600
O1053       O  0.40371632  0.59871915  0.17113185    -0.67000
Ni1054     Ni  0.40120795  0.59282201  0.06578137     1.27400
Ni1055     Ni  0.45317873  0.58539010  0.10053584     1.26100
H1056       H  0.46261798  0.62017460  0.13887240     0.38100
C1057       C  0.02062880  0.62225756  0.97645558    -0.07100
C1058       C  0.48798223  0.60706415  0.97028542    -0.18200
C1059       C  0.46630213  0.59552030  0.99193976     0.10100
C1060       C  0.47666338  0.59926103  0.01976254    -0.07000
C1061       C  0.00907492  0.61400675  0.02582685    -0.18200
C1062       C  0.03085534  0.62589713  0.00428430     0.10200
S1063       S  0.42584205  0.57647042  0.98277470    -0.33200
S1064       S  0.07127929  0.64565773  0.01362072    -0.33200
H1065       H  0.08135090  0.63716376  0.98946766     0.28200
H1066       H  0.41531114  0.55634246  0.00558584     0.28200
H1067       H  0.47991333  0.60463378  0.94900009     0.18800
H1068       H  0.01711090  0.61763072  0.04719603     0.18800
C1069       C  0.07252780  0.74922198  0.89343761    -0.07100
C1070       C  0.08166468  0.76649651  0.86879710    -0.18200
C1071       C  0.08464480  0.79587458  0.86742369     0.10100
C1072       C  0.07805178  0.80865495  0.89125320    -0.07000
C1073       C  0.06571678  0.78979680  0.91482845    -0.18200
C1074       C  0.06237213  0.76028618  0.91598413     0.10200
S1075       S  0.09934194  0.81637662  0.83527973    -0.33200
S1076       S  0.04470561  0.73787983  0.94677285    -0.33200
H1077       H  0.03079749  0.70908491  0.93283016     0.28200
H1078       H  0.12509434  0.84119967  0.84834182     0.28200
H1079       H  0.08885014  0.75817156  0.85098790     0.18800
H1080       H  0.05896473  0.79824340  0.93285161     0.18800
C1081       C  0.10226547  0.52945706  0.86982934    -0.07100
C1082       C  0.09183451  0.53667538  0.89443329    -0.18200
C1083       C  0.08620374  0.56146762  0.89580395     0.10100
C1084       C  0.08970439  0.57893017  0.87154557    -0.07000
C1085       C  0.10302333  0.57337361  0.84783035    -0.18200
C1086       C  0.10968348  0.54934094  0.84686768     0.10200
S1087       S  0.07382449  0.56861817  0.92895558    -0.33200
S1088       S  0.12719475  0.54500336  0.81550276    -0.33200
H1089       H  0.14330376  0.03241107  0.82871515     0.28200
H1090       H  0.09351955  0.60089698  0.92769350     0.28200
H1091       H  0.08658689  0.52199324  0.91243407     0.18800
H1092       H  0.10736383  0.58713049  0.82931713     0.18800
C1093       C  0.11977095  0.97426619  0.97731056    -0.07100
C1094       C  0.11602208  0.96184717  0.00404942    -0.18200
C1095       C  0.12572074  0.98096758  0.02777702     0.10100
C1096       C  0.13876884  0.51336566  0.02488341    -0.07000
C1097       C  0.14242731  0.52573960  0.99822495    -0.18200
C1098       C  0.13357310  0.00668727  0.97450971     0.10200
S1099       S  0.12260006  0.96291295  0.06081627    -0.33200
S1100       S  0.14319065  0.52567389  0.94134123    -0.33200
H1101       H  0.15215003  0.00573388  0.92905652     0.28200
H1102       H  0.14994965  0.98742629  0.07220341     0.28200
H1103       H  0.10609404  0.93710939  0.00642160     0.18800
H1104       H  0.15314886  0.55056654  0.99583286     0.18800
C1105       C  0.08653822  0.57800441  0.12587869    -0.07100
C1106       C  0.06621858  0.56704722  0.10300015    -0.18200
C1107       C  0.04138316  0.57249967  0.10112816     0.10100
C1108       C  0.03678080  0.58947938  0.12248948    -0.07000
C1109       C  0.05888687  0.60304398  0.14369779    -0.18200
C1110       C  0.08402750  0.59821776  0.14524002     0.10200
S1111       S  0.01478022  0.55449151  0.07260346    -0.33200
S1112       S  0.11182154  0.61847484  0.17255797    -0.33200
H1113       H  0.13749424  0.62247806  0.15696264     0.28200
H1114       H  0.98841881  0.54115900  0.08966432     0.28200
H1115       H  0.06815247  0.55211841  0.08758564     0.18800
H1116       H  0.05606047  0.61689111  0.15969947     0.18800
C1117       C  0.25977041  0.56628309  0.10979992    -0.07100
C1118       C  0.27894439  0.57765324  0.13334390    -0.18200
C1119       C  0.30820774  0.58041166  0.13354425     0.10100
C1120       C  0.31832962  0.57067468  0.10993268    -0.07000
C1121       C  0.29780901  0.55656371  0.08754254    -0.18200
C1122       C  0.26861758  0.55387368  0.08737941     0.10200
S1123       S  0.33248393  0.59976530  0.16323401    -0.33200
S1124       S  0.24393923  0.53472555  0.05779914    -0.33200
H1125       H  0.21600327  0.52348185  0.07262861     0.28200
H1126       H  0.35783472  0.62058621  0.14702825     0.28200
H1127       H  0.27238967  0.58714520  0.15073319     0.18800
H1128       H  0.30478097  0.54804095  0.06971058     0.18800
C1129       C  0.50663412  0.90733915  0.12834985    -0.07100
C1130       C  0.02638454  0.91191602  0.15222241    -0.18200
C1131       C  0.05673029  0.93661786  0.15355203     0.10100
C1132       C  0.06891901  0.95698781  0.13093120    -0.07000
C1133       C  0.05194568  0.94951610  0.10605333    -0.18200
C1134       C  0.02182523  0.92419922  0.10436164     0.10200
S1135       S  0.07836800  0.94132034  0.18494901    -0.33200
S1136       S  0.50118106  0.91898801  0.07133597    -0.33200
H1137       H  0.48902382  0.88676968  0.07163766     0.28200
H1138       H  0.10751610  0.95542575  0.17188233     0.28200
H1139       H  0.01692339  0.89769401  0.17051857     0.18800
H1140       H  0.06156291  0.96443263  0.08817054     0.18800
C1141       C  0.32004195  0.73625738  0.10774827    -0.07100
C1142       C  0.31163310  0.71852745  0.13207633    -0.18200
C1143       C  0.28445900  0.68970597  0.13341495     0.10100
C1144       C  0.26434111  0.67835198  0.11007037    -0.07000
C1145       C  0.27151185  0.69752730  0.08671617    -0.18200
C1146       C  0.29875880  0.72625989  0.08540093     0.10200
S1147       S  0.27884849  0.66772722  0.16456111    -0.33200
S1148       S  0.30488181  0.74893877  0.05459473    -0.33200
H1149       H  0.32101312  0.77772423  0.06843885     0.28200
H1150       H  0.27675568  0.64213756  0.15003452     0.28200
H1151       H  0.32753018  0.72595507  0.14951869     0.18800
H1152       H  0.25604094  0.68984085  0.06895461     0.18800
C1153       C  0.41020398  0.93214387  0.12883140    -0.07100
C1154       C  0.40317627  0.94351729  0.15288168    -0.18200
C1155       C  0.40700044  0.97324732  0.15394805     0.10100
C1156       C  0.41871717  0.99260127  0.13026322    -0.07000
C1157       C  0.42302987  0.98001639  0.10544653    -0.18200
C1158       C  0.41932244  0.95034129  0.10456735     0.10200
S1159       S  0.39641530  0.98540703  0.18579203    -0.33200
S1160       S  0.42965118  0.93850075  0.07267752    -0.33200
H1161       H  0.44800923  0.92853026  0.08599429     0.28200
H1162       H  0.39338222  0.46136299  0.20272137     0.28200
H1163       H  0.39518458  0.92910498  0.17117542     0.18800
H1164       H  0.43156848  0.99414103  0.08700404     0.18800
C1165       C  0.43171485  0.67835452  0.10727673    -0.07100
C1166       C  0.41897676  0.68544171  0.13035148    -0.18200
C1167       C  0.41662693  0.71211052  0.13115534     0.10100
C1168       C  0.42847547  0.73325492  0.10880934    -0.07000
C1169       C  0.44409370  0.72765288  0.08709990    -0.18200
C1170       C  0.44617610  0.70074272  0.08628206     0.10200
S1171       S  0.39488665  0.71543491  0.15972831    -0.33200
S1172       S  0.46760882  0.69636769  0.05801491    -0.33200
H1173       H  0.47689137  0.67843460  0.07309806     0.28200
H1174       H  0.37468510  0.71948018  0.14229503     0.28200
H1175       H  0.40814149  0.66874061  0.14683266     0.18800
H1176       H  0.45425434  0.74406966  0.07030686     0.18800
C1177       C  0.18355881  0.75430720  0.89367691    -0.07100
C1178       C  0.20531419  0.75896672  0.91438507    -0.18200
C1179       C  0.23446782  0.78593601  0.91530427     0.10100
C1180       C  0.24210479  0.80932198  0.89540099    -0.07000
C1181       C  0.22114166  0.80384430  0.87375498    -0.18200
C1182       C  0.19198406  0.77704741  0.87288612     0.10200
S1183       S  0.26089875  0.78901767  0.94225413    -0.33200
S1184       S  0.16557588  0.77519647  0.84649045    -0.33200
H1185       H  0.14108551  0.76703359  0.86530114     0.28200
H1186       H  0.28791178  0.80700808  0.92659729     0.28200
H1187       H  0.19944139  0.74158365  0.93018779     0.18800
H1188       H  0.22648521  0.82169447  0.85854321     0.18800
C1189       C  0.41940251  0.98932782  0.87288124    -0.07100
C1190       C  0.42641417  0.50667645  0.84825309    -0.18200
C1191       C  0.45053067  0.53728614  0.84693455     0.10100
C1192       C  0.46871904  0.55165930  0.87076392    -0.07000
C1193       C  0.46055612  0.53566759  0.89601288    -0.18200
C1194       C  0.43611569  0.50495994  0.89749234     0.10200
S1195       S  0.45723521  0.55652000  0.81392340    -0.33200
S1196       S  0.42897594  0.98675694  0.93098339    -0.33200
H1197       H  0.39693456  0.97568974  0.92995079     0.28200
H1198       H  0.46817753  0.58625670  0.82536598     0.28200
H1199       H  0.41358390  0.99588208  0.82925218     0.18800
H1200       H  0.47423398  0.54668141  0.91449338     0.18800
C1201       C  0.24621118  0.92158925  0.89490168    -0.07100
C1202       C  0.22900802  0.91350013  0.87008759    -0.18200
C1203       C  0.20110978  0.91364056  0.86823634     0.10100
C1204       C  0.18927409  0.92142477  0.89187339    -0.07000
C1205       C  0.20789030  0.93210647  0.91591419    -0.18200
C1206       C  0.23624289  0.93282984  0.91752316     0.10200
S1207       S  0.18067115  0.90097233  0.83581867    -0.33200
S1208       S  0.25828167  0.94816701  0.94914976    -0.33200
H1209       H  0.28728610  0.96160061  0.93584576     0.28200
H1210       H  0.17930719  0.92824996  0.83321539     0.28200
H1211       H  0.23639927  0.90531662  0.85230311     0.18800
H1212       H  0.19988710  0.93920163  0.93402442     0.18800
C1213       C  0.43884131  0.89225374  0.88018395    -0.07100
C1214       C  0.45917218  0.91156094  0.90100527    -0.18200
C1215       C  0.49069855  0.92062138  0.90035818     0.10100
C1216       C  0.00162406  0.90875307  0.87862981    -0.07000
C1217       C  0.48124004  0.88920588  0.85864529    -0.18200
C1218       C  0.44975871  0.87969737  0.85972759     0.10200
S1219       S  0.51507486  0.94745636  0.92687059    -0.33200
S1220       S  0.42467857  0.85237326  0.83375084    -0.33200
H1221       H  0.39760203  0.84021863  0.84997240     0.28200
H1222       H  0.02438746  0.92143165  0.93684823     0.28200
H1223       H  0.45092330  0.92140141  0.91674001     0.18800
H1224       H  0.48943158  0.88040500  0.84194416     0.18800
C1225       C  0.36917674  0.88201437  0.98251225    -0.07100
C1226       C  0.39787786  0.88321629  0.97975604    -0.18200
C1227       C  0.40924590  0.87220674  0.00069211     0.10100
C1228       C  0.39176149  0.85985173  0.02515737    -0.07000
C1229       C  0.36386634  0.85974549  0.02850453    -0.18200
C1230       C  0.35266719  0.87109114  0.00785233     0.10200
S1231       S  0.44589107  0.87422009  0.99470345    -0.33200
S1232       S  0.31770270  0.87175935  0.01576098    -0.33200
H1233       H  0.32800552  0.90084475  0.00367039     0.28200
H1234       H  0.44004273  0.84871102  0.01102733     0.28200
H1235       H  0.41109257  0.89168292  0.96070686     0.18800
H1236       H  0.35078986  0.85098703  0.04760499     0.17600
C1237       C  0.39785223  0.58972655  0.21994851    -0.07100
C1238       C  0.41577534  0.61700155  0.23524624    -0.18200
C1239       C  0.41660231  0.61657610  0.26435004     0.10100
C1240       C  0.39758894  0.58867377  0.27860349    -0.07000
C1241       C  0.37679100  0.56230706  0.26321716    -0.18200
C1242       C  0.37679282  0.56256731  0.23406630     0.10200
S1243       S  0.44632157  0.65092049  0.28134634    -0.33200
S1244       S  0.35195872  0.52678531  0.21584384    -0.33200
H1245       H  0.35172920  0.54057426  0.19054701     0.28200
H1246       H  0.45627784  0.63557295  0.29920698     0.28200
H1247       H  0.43243694  0.63774045  0.22447749     0.18800
H1248       H  0.36227950  0.54071889  0.27387877     0.18800
C1249       C  0.10385910  0.69471560  0.72091127    -0.07100
C1250       C  0.08612373  0.70457036  0.73578058    -0.18200
C1251       C  0.08626303  0.70506774  0.76492298     0.10100
C1252       C  0.10455402  0.69555843  0.77937111    -0.07000
C1253       C  0.12537162  0.68984419  0.76439707    -0.18200
C1254       C  0.12529813  0.68948336  0.73528381     0.10200
S1255       S  0.05860554  0.71254699  0.78232348    -0.33200
S1256       S  0.15020525  0.67840411  0.71757961    -0.33200
H1257       H  0.14995428  0.69138981  0.69182549     0.28200
H1258       H  0.07634550  0.72508228  0.80657519     0.28200
H1259       H  0.06947602  0.70843360  0.72481255     0.18800
H1260       H  0.13942106  0.68245291  0.77534052     0.18800
C1261       C  0.02048571  0.62449915  0.52245191    -0.07100
C1262       C  0.49007888  0.61434823  0.52741483    -0.18200
C1263       C  0.46820713  0.60432146  0.50596318     0.10100
C1264       C  0.47773206  0.60466641  0.47817480    -0.07000
C1265       C  0.00812277  0.61380981  0.47331018    -0.18200
C1266       C  0.03002718  0.62420217  0.49481978     0.10200
S1267       S  0.42859587  0.59128229  0.51546439    -0.33200
S1268       S  0.06978615  0.63754423  0.48553307    -0.33200
H1269       H  0.07871039  0.63114351  0.51115458     0.28200
H1270       H  0.41534124  0.56872031  0.49426980     0.28200
H1271       H  0.48275320  0.61484275  0.54860218     0.18800
H1272       H  0.01573595  0.61421006  0.45207197     0.18800
C1273       C  0.08517277  0.87994897  0.72002697    -0.07100
C1274       C  0.11451247  0.89372946  0.73246658    -0.18200
C1275       C  0.11765464  0.89634075  0.76153461     0.10100
C1276       C  0.09083030  0.88385234  0.77843640    -0.07000
C1277       C  0.06176400  0.86578699  0.76576250    -0.18200
C1278       C  0.05869444  0.86369734  0.73681573     0.10200
S1279       S  0.15618420  0.91969349  0.77511712    -0.33200
S1280       S  0.02018103  0.84269785  0.72241656    -0.33200
H1281       H  0.02935475  0.83876332  0.69566182     0.28200
H1282       H  0.14869703  0.93667986  0.79390880     0.28200
H1283       H  0.13497998  0.90613350  0.71962456     0.18800
H1284       H  0.04101595  0.85552731  0.77845696     0.18800
C1285       C  0.06684343  0.80350327  0.60486897    -0.07100
C1286       C  0.07317992  0.79346617  0.62989017    -0.18200
C1287       C  0.07401234  0.76592766  0.63123555     0.10100
C1288       C  0.06977789  0.74824942  0.60661570    -0.07000
C1289       C  0.06049752  0.75682756  0.58228921    -0.18200
C1290       C  0.05820187  0.78356042  0.58133632     0.10200
S1291       S  0.08231322  0.75609255  0.66478754    -0.33200
S1292       S  0.04394858  0.79058472  0.54945107    -0.33200
H1293       H  0.02806485  0.80374401  0.56275042     0.28200
H1294       H  0.05642240  0.72599240  0.66407621     0.28200
H1295       H  0.07887849  0.80782115  0.64845244     0.18800
H1296       H  0.05549549  0.74288590  0.56352185     0.18800
C1297       C  0.08825152  0.52247051  0.62775872    -0.07100
C1298       C  0.10026781  0.54399249  0.64971178    -0.18200
C1299       C  0.09734193  0.57039729  0.65015201     0.10100
C1300       C  0.08046970  0.57484262  0.62879030    -0.07000
C1301       C  0.07079657  0.55462380  0.60566826    -0.18200
C1302       C  0.07436493  0.52856936  0.60496812     0.10200
S1303       S  0.11586339  0.59734692  0.67856708    -0.33200
S1304       S  0.05781525  0.50250419  0.57572229    -0.33200
H1305       H  0.04285294  0.97592010  0.59218906     0.28200
H1306       H  0.12435134  0.62379603  0.66248404     0.28200
H1307       H  0.11180592  0.54001878  0.66686630     0.18800
H1308       H  0.05826836  0.55773175  0.58886361     0.18800
C1309       C  0.20205380  0.60171759  0.22323515    -0.07100
C1310       C  0.21620355  0.58703068  0.23632834    -0.18200
C1311       C  0.21638991  0.58523902  0.26547774     0.10100
C1312       C  0.20204044  0.59828719  0.28164295    -0.07000
C1313       C  0.19224968  0.61682376  0.26857863    -0.18200
C1314       C  0.19219998  0.61875692  0.23962498     0.10200
S1315       S  0.23067037  0.56199097  0.28053253    -0.33200
S1316       S  0.17597786  0.64043133  0.22472441    -0.33200
H1317       H  0.19065855  0.64491972  0.19872672     0.28200
H1318       H  0.24237553  0.58034670  0.30468914     0.28200
H1319       H  0.22402329  0.57404248  0.22390284     0.18800
H1320       H  0.18153822  0.62723852  0.28086164     0.18800
C1321       C  0.12663274  0.50812352  0.47711832    -0.07100
C1322       C  0.13366645  0.52043683  0.50418071    -0.18200
C1323       C  0.12414219  0.00115614  0.52735176     0.10100
C1324       C  0.10618203  0.96873896  0.52357215    -0.07000
C1325       C  0.09858180  0.95643233  0.49655702    -0.18200
C1326       C  0.10903495  0.97565492  0.47332860     0.10200
S1327       S  0.13797180  0.51934576  0.56087060    -0.33200
S1328       S  0.10158041  0.95707147  0.43971930    -0.33200
H1329       H  0.13095410  0.97777848  0.42878119     0.28200
H1330       H  0.14285827  0.99606664  0.57148081     0.28200
H1331       H  0.14779476  0.54524934  0.50721868     0.18800
H1332       H  0.08546739  0.93155602  0.49351802     0.18800
C1333       C  0.08524009  0.58062783  0.37353744    -0.07100
C1334       C  0.07871774  0.59202444  0.34936299    -0.18200
C1335       C  0.05420539  0.59799046  0.34830271     0.10100
C1336       C  0.03493036  0.59185507  0.37181026    -0.07000
C1337       C  0.04361444  0.58416580  0.39694738    -0.18200
C1338       C  0.06889997  0.57924347  0.39824478     0.10200
S1339       S  0.04775186  0.61307295  0.31655345    -0.33200
S1340       S  0.07861907  0.57111683  0.43195117    -0.33200
H1341       H  0.11077580  0.58944947  0.42781734     0.28200
H1342       H  0.57388498  0.61730203  0.30158764     0.28200
H1343       H  0.09187757  0.59486427  0.33057455     0.18800
H1344       H  0.02988821  0.58071455  0.41552020     0.18800
C1345       C  0.31576440  0.57095435  0.39227931    -0.07100
C1346       C  0.29453320  0.55262497  0.41289360    -0.18200
C1347       C  0.26421749  0.54737290  0.41328593     0.10100
C1348       C  0.25486494  0.56113964  0.39290838    -0.07000
C1349       C  0.27529718  0.57739446  0.37112536    -0.18200
C1350       C  0.30560676  0.58289272  0.37082141     0.10200
S1351       S  0.23862385  0.52305382  0.44028677    -0.33200
S1352       S  0.33096186  0.60837700  0.34432120    -0.33200
H1353       H  0.35505577  0.62640894  0.36310722     0.28200
H1354       H  0.21115883  0.51323783  0.42511570     0.28200
H1355       H  0.30172414  0.54261826  0.42904654     0.18800
H1356       H  0.26865153  0.58851633  0.35557968     0.18800
C1357       C  0.40305755  0.79033967  0.28082325    -0.07100
C1358       C  0.43211925  0.80175534  0.26819269    -0.18200
C1359       C  0.43512922  0.80243307  0.23919402     0.10100
C1360       C  0.40862235  0.79202458  0.22226795    -0.07000
C1361       C  0.37928462  0.77674589  0.23481664    -0.18200
C1362       C  0.37625966  0.77570555  0.26395867     0.10200
S1363       S  0.47368563  0.82014162  0.22486513    -0.33200
S1364       S  0.33790287  0.75931980  0.27832994    -0.33200
H1365       H  0.34529687  0.75097308  0.30375828     0.28200
H1366       H  0.46452645  0.80567652  0.19857594     0.28200
H1367       H  0.45285738  0.81296802  0.28090334     0.18800
H1368       H  0.35876479  0.76859688  0.22204437     0.18800
C1369       C  0.39808583  0.92891361  0.37887839    -0.07100
C1370       C  0.38551244  0.93811815  0.35752777    -0.18200
C1371       C  0.39112183  0.96847210  0.35617059     0.10100
C1372       C  0.41115484  0.99088045  0.37584303    -0.07000
C1373       C  0.42112549  0.98091009  0.39870964    -0.18200
C1374       C  0.41496810  0.95037643  0.40035090     0.10200
S1375       S  0.37205363  0.97700170  0.32879897    -0.33200
S1376       S  0.43234466  0.94149799  0.42870767    -0.33200
H1377       H  0.44439196  0.92733707  0.41156656     0.28200
H1378       H  0.36889521  0.49929663  0.34436720     0.28200
H1379       H  0.37186647  0.92168983  0.34130528     0.18800
H1380       H  0.43598857  0.99753171  0.41430233     0.18800
C1381       C  0.43167478  0.73886385  0.39508033    -0.07100
C1382       C  0.42437012  0.72143304  0.37027148    -0.18200
C1383       C  0.42412077  0.69331561  0.36875811     0.10100
C1384       C  0.43043775  0.68127391  0.39284468    -0.07000
C1385       C  0.44076220  0.70025136  0.41680799    -0.18200
C1386       C  0.44208308  0.72891163  0.41803741     0.10200
S1387       S  0.41362586  0.67342039  0.33581737    -0.33200
S1388       S  0.45689784  0.75114065  0.44975576    -0.33200
H1389       H  0.47186398  0.77990801  0.43629614     0.28200
H1390       H  0.44006367  0.67031482  0.33560618     0.28200
H1391       H  0.41716384  0.72885741  0.35210959     0.18800
H1392       H  0.44707498  0.69231494  0.43519675     0.18800
C1393       C  0.05533866  0.95895360  0.37274171    -0.07100
C1394       C  0.04579353  0.93662394  0.35149940    -0.18200
C1395       C  0.01626061  0.91028100  0.35173535     0.10100
C1396       C  0.49467126  0.90700931  0.37261274    -0.07000
C1397       C  0.00575776  0.92780311  0.39559945    -0.18200
C1398       C  0.03535137  0.95396605  0.39543610     0.10200
S1399       S  0.00758194  0.88201891  0.32442688    -0.33200
S1400       S  0.04489665  0.98175685  0.42324129    -0.33200
H1401       H  0.05571108  0.00696919  0.40516192     0.28200
H1402       H  0.48883894  0.85639614  0.34130937     0.28200
H1403       H  0.06146771  0.93980210  0.33452006     0.18800
H1404       H  0.49011588  0.92573479  0.41200802     0.18800
C1405       C  0.31892400  0.72701376  0.39755030    -0.07100
C1406       C  0.31436801  0.70447654  0.41715899    -0.18200
C1407       C  0.28781935  0.67546549  0.41723731     0.10100
C1408       C  0.26384451  0.66843947  0.39795443    -0.07000
C1409       C  0.26841159  0.69049352  0.37773642    -0.18200
C1410       C  0.29560437  0.71970175  0.37737259     0.10200
S1411       S  0.28746957  0.64767852  0.44108488    -0.33200
S1412       S  0.29852319  0.74669987  0.35139987    -0.33200
H1413       H  0.31240178  0.77261098  0.36931994     0.28200
H1414       H  0.27751078  0.62414875  0.42077156     0.28200
H1415       H  0.33240798  0.70891365  0.43204548     0.18800
H1416       H  0.25045031  0.68521175  0.36251902     0.18800
C1417       C  0.29900572  0.89744294  0.72320761    -0.07100
C1418       C  0.30867264  0.92429172  0.73943900    -0.18200
C1419       C  0.30938975  0.92343099  0.76853205     0.10100
C1420       C  0.30128267  0.89538436  0.78187105    -0.07000
C1421       C  0.28848448  0.86799011  0.76593637    -0.18200
C1422       C  0.28662980  0.86867679  0.73678196     0.10200
S1423       S  0.32420897  0.95943805  0.78750848    -0.33200
S1424       S  0.27246795  0.83281390  0.71781919    -0.33200
H1425       H  0.25544444  0.83942871  0.69867814     0.28200
H1426       H  0.30903681  0.94600668  0.81263124     0.28200
H1427       H  0.31797137  0.94648113  0.72931688     0.18800
H1428       H  0.28229799  0.84633394  0.77597082     0.18800
C1429       C  0.18284575  0.75214298  0.61020236    -0.07100
C1430       C  0.20304942  0.75907498  0.58747426    -0.18200
C1431       C  0.23121933  0.78704070  0.58632389     0.10100
C1432       C  0.23947434  0.80853526  0.60848319    -0.07000
C1433       C  0.22115975  0.80001243  0.63256999    -0.18200
C1434       C  0.19274511  0.77250484  0.63351005     0.10200
S1435       S  0.25629149  0.79504988  0.55651212    -0.33200
S1436       S  0.16899213  0.76704920  0.66366910    -0.33200
H1437       H  0.14378861  0.76343057  0.64779692     0.28200
H1438       H  0.23729546  0.76740936  0.54177622     0.28200
H1439       H  0.19611529  0.74306305  0.57003587     0.18800
H1440       H  0.22756184  0.81616849  0.64987564     0.18800
C1441       C  0.41176495  0.99617413  0.62580420    -0.07100
C1442       C  0.43262936  0.50573667  0.60337840    -0.18200
C1443       C  0.45789968  0.53573286  0.60223905     0.10100
C1444       C  0.46234370  0.55709492  0.62367899    -0.07000
C1445       C  0.44002816  0.54856926  0.64468413    -0.18200
C1446       C  0.41456963  0.51846136  0.64585825     0.10200
S1447       S  0.48605308  0.54387340  0.57531533    -0.33200
S1448       S  0.38640205  0.00869311  0.67343445    -0.33200
H1449       H  0.39908570  0.03857678  0.68505224     0.28200
H1450       H  0.48347586  0.56866875  0.56520756     0.28200
H1451       H  0.43063571  0.98901399  0.58773864     0.18800
H1452       H  0.44344130  0.56518994  0.66092545     0.18800
C1453       C  0.23243710  0.91547006  0.61282509    -0.07100
C1454       C  0.22792320  0.93267394  0.59233473    -0.18200
C1455       C  0.20019180  0.93316980  0.59068386     0.10100
C1456       C  0.17640439  0.91611773  0.61001383    -0.07000
C1457       C  0.18215487  0.90164819  0.63219705    -0.18200
C1458       C  0.20958110  0.90070141  0.63360814     0.10200
S1459       S  0.19536350  0.95534924  0.56373659    -0.33200
S1460       S  0.21207853  0.87718451  0.66047701    -0.33200
H1461       H  0.21910529  0.85980427  0.64172185     0.28200
H1462       H  0.22559725  0.96897703  0.55296886     0.28200
H1463       H  0.24571779  0.94468578  0.57683147     0.18800
H1464       H  0.16405781  0.88859791  0.64722791     0.18800
C1465       C  0.43136946  0.89579038  0.62282203    -0.07100
C1466       C  0.43970139  0.88331826  0.64482565    -0.18200
C1467       C  0.46870727  0.88569941  0.64577366     0.10100
C1468       C  0.99122614  0.90231472  0.62622775    -0.07000
C1469       C  0.48112781  0.91156693  0.60117026    -0.18200
C1470       C  0.45179489  0.90866930  0.60001953     0.10200
S1471       S  0.47587556  0.86739875  0.67463488    -0.33200
S1472       S  0.44334501  0.92473039  0.57024494    -0.33200
H1473       H  0.43250214  0.94114209  0.58604846     0.28200
H1474       H  0.99508562  0.85933753  0.66129431     0.28200
H1475       H  0.42368148  0.87225924  0.66187344     0.18800
H1476       H  0.99739487  0.92273264  0.58552766     0.18800
C1477       C  0.35744194  0.88041181  0.52179808    -0.07100
C1478       C  0.34129085  0.84872204  0.51526966    -0.18200
C1479       C  0.35160133  0.83605059  0.49452919     0.10100
C1480       C  0.37921845  0.85568401  0.47963127    -0.07000
C1481       C  0.39550473  0.88741579  0.48652110    -0.18200
C1482       C  0.38471484  0.90001865  0.50690311     0.10200
S1483       S  0.32840196  0.79491544  0.48738677    -0.33200
S1484       S  0.40591406  0.94141287  0.51181637    -0.33200
H1485       H  0.37973806  0.94407893  0.51768170     0.28200
H1486       H  0.30574595  0.78770731  0.50800717     0.28200
H1487       H  0.32052208  0.83367992  0.52685082     0.18800
H1488       H  0.41678424  0.90269573  0.47575638     0.18800
O1489       O  0.81699596  0.37892083  0.54891376    -0.81800
O1490       O  0.79264541  0.38781657  0.67462315    -0.66500
O1491       O  0.82092022  0.41068193  0.59960064    -1.13100
C1492       C  0.90338221  0.39744464  0.62721260     1.05100
O1493       O  0.83956991  0.41874245  0.69137544    -0.79700
O1494       O  0.88445642  0.45196924  0.65514491    -0.67300
Ni1495     Ni  0.79332337  0.39405606  0.56874251     1.34900
C1496       C  0.89100121  0.46205215  0.63054440     0.83800
O1497       O  0.77252393  0.40756946  0.63200581    -0.80300
O1498       O  0.76707291  0.40751497  0.58550067    -0.90500
C1499       C  0.81070507  0.40111416  0.69506198     0.83400
O1500       O  0.76753166  0.35342203  0.58253658    -0.68700
O1501       O  0.89892752  0.40599780  0.65105886    -0.88000
C1502       C  0.76394494  0.34113766  0.60621636     0.84200
C1503       C  0.75944668  0.41029224  0.61033677     1.05800
H1504       H  0.83079639  0.36903213  0.64224144     0.37600
O1505       O  0.83895081  0.39096048  0.63994497    -1.10700
O1506       O  0.88216782  0.44440767  0.60917887    -0.67300
Ni1507     Ni  0.85319934  0.40115351  0.60244452     1.26300
O1508       O  0.77823638  0.35616335  0.62792576    -0.67600
O1509       O  0.88537966  0.39159822  0.60659968    -0.79900
C1510       C  0.84611648  0.39087117  0.54596666     0.83600
O1511       O  0.86464447  0.40921791  0.56418363    -0.67000
Ni1512     Ni  0.86770560  0.41148513  0.66942678     1.27400
Ni1513     Ni  0.80561035  0.39901927  0.63666510     1.26100
H1514       H  0.82992552  0.43285171  0.59858975     0.38100
O1515       O  0.88150415  0.31526152  0.45412580    -0.81800
O1516       O  0.89584350  0.28700007  0.33052833    -0.66500
O1517       O  0.91417777  0.31991173  0.40463991    -1.13100
C1518       C  0.89785189  0.39880130  0.37516855     1.05100
O1519       O  0.91157489  0.33172058  0.30881365    -0.79700
O1520       O  0.95015328  0.37464768  0.34632568    -0.67300
Ni1521     Ni  0.90082735  0.29432968  0.43646392     1.34900
C1522       C  0.96109175  0.38518790  0.37036198     0.83800
O1523       O  0.91846659  0.27373469  0.37523852    -0.80300
O1524       O  0.91868619  0.27084009  0.42190295    -0.90500
C1525       C  0.90340027  0.30322160  0.30862202     0.83400
O1526       O  0.86157965  0.26392020  0.42262635    -0.68700
O1527       O  0.90872379  0.39481559  0.35255399    -0.88000
C1528       C  0.84905883  0.25602752  0.39875871     0.84200
C1529       C  0.92302194  0.26299018  0.39766233     1.05800
H1530       H  0.86859081  0.32161120  0.36057981     0.37600
O1531       O  0.89079885  0.33220941  0.36292055    -1.10700
O1532       O  0.94375387  0.37987946  0.39171685    -0.67300
Ni1533     Ni  0.90094458  0.34919433  0.39999674     1.26300
O1534       O  0.86238186  0.27043466  0.37658647    -0.67600
O1535       O  0.88824722  0.37911619  0.39457505    -0.79900
C1536       C  0.89088457  0.34398731  0.45644478     0.83600
O1537       O  0.90855734  0.36262896  0.43804375    -0.67000
Ni1538     Ni  0.90945637  0.36117918  0.33328553     1.27400
Ni1539     Ni  0.90432954  0.30247116  0.36819286     1.26100
H1540       H  0.93649436  0.33088512  0.40590377     0.38100
O1541       O  0.66991518  0.04543621  0.45140531    -0.81800
O1542       O  0.70298366  0.08951653  0.32942373    -0.66500
O1543       O  0.67007196  0.07760469  0.40305961    -1.13100
C1544       C  0.58504483  0.48785610  0.36930282     1.05100
O1545       O  0.65741942  0.06968644  0.30784310    -0.79700
O1546       O  0.61721301  0.06807471  0.34625672    -0.67300
Ni1547     Ni  0.69564367  0.08547242  0.43490430     1.34900
C1548       C  0.60571872  0.06702871  0.37011938     0.83800
O1549       O  0.72166063  0.12476277  0.37501927    -0.80300
O1550       O  0.72389344  0.12628520  0.42180204    -0.90500
C1551       C  0.68682863  0.08513659  0.30777373     0.83400
O1552       O  0.72192125  0.07133245  0.42022564    -0.68700
O1553       O  0.58973840  0.50433631  0.34785224    -0.88000
C1554       C  0.72765216  0.06563018  0.39580494     0.84200
C1555       C  0.73424136  0.13815051  0.39799558     1.05800
H1556       H  0.66110245  0.02894941  0.35593888     0.37600
O1557       O  0.65351568  0.04302640  0.35952903    -1.10700
O1558       O  0.60916726  0.05248312  0.39018072    -0.67300
Ni1559     Ni  0.63714430  0.03650463  0.39641460     1.26300
O1560       O  0.71392802  0.06722791  0.37420557    -0.67600
O1561       O  0.60471553  0.49564628  0.38865274    -0.79900
C1562       C  0.64059668  0.02908465  0.45282899     0.83600
O1563       O  0.62338222  0.02998806  0.43407132    -0.67000
Ni1564     Ni  0.62561064  0.03813633  0.33031753     1.27400
Ni1565     Ni  0.68759666  0.08404457  0.36668515     1.26100
H1566       H  0.66155852  0.09110207  0.40506877     0.38100
O1567       O  0.61002973  0.42979305  0.54799081    -0.81800
O1568       O  0.59386001  0.38643886  0.67081503    -0.66500
O1569       O  0.57636503  0.39904558  0.59648768    -1.13100
C1570       C  0.58747799  0.49260404  0.62975626     1.05100
O1571       O  0.56817175  0.40698116  0.69119325    -0.79700
O1572       O  0.53392424  0.41620868  0.65379385    -0.67300
Ni1573     Ni  0.59468930  0.39003334  0.56542934     1.34900
C1574       C  0.52446099  0.41493111  0.62913020     0.83800
O1575       O  0.57476888  0.35007802  0.62554254    -0.80300
O1576       O  0.58083858  0.34919906  0.57926468    -0.90500
C1577       C  0.58198538  0.39151970  0.69211577     0.83400
O1578       O  0.63469233  0.40446179  0.58102400    -0.68700
O1579       O  0.57721919  0.47788216  0.65237935    -0.88000
C1580       C  0.64489966  0.40938328  0.60578323     0.84200
C1581       C  0.57420640  0.33609221  0.60293603     1.05800
H1582       H  0.61699704  0.44700056  0.64316770     0.37600
O1583       O  0.59504769  0.43400214  0.63983221    -1.10700
O1584       O  0.54287851  0.42620193  0.60850908    -0.67300
Ni1585     Ni  0.58646345  0.44081092  0.60266869     1.26300
O1586       O  0.62818060  0.40609966  0.62690179    -0.67600
O1587       O  0.59631264  0.48244019  0.60954204    -0.79900
C1588       C  0.59805324  0.44693894  0.54634585     0.83600
O1589       O  0.58006102  0.44698047  0.56492835    -0.67000
Ni1590     Ni  0.57374890  0.44150761  0.66941128     1.27400
Ni1591     Ni  0.58520990  0.39202168  0.63332621     1.26100
H1592       H  0.55426444  0.38628995  0.59388365     0.38100
O1593       O  0.56220552  0.16648514  0.54597480    -0.81800
O1594       O  0.59852656  0.19683730  0.67164670    -0.66500
O1595       O  0.58863304  0.16432452  0.59783653    -1.13100
C1596       C  0.99224292  0.08530325  0.62830451     1.05100
O1597       O  0.57505744  0.15121474  0.69269594    -0.79700
O1598       O  0.56719908  0.10661258  0.65604843    -0.67300
Ni1599     Ni  0.60024237  0.19132591  0.56647151     1.34900
C1600       C  0.56836123  0.09680251  0.63187670     0.83800
O1601       O  0.63668581  0.21119619  0.62899683    -0.80300
O1602       O  0.63979699  0.21911242  0.58295658    -0.90500
C1603       C  0.59204462  0.18047035  0.69321258     0.83400
O1604       O  0.58400820  0.21645657  0.57959073    -0.68700
O1605       O  0.50604779  0.08946245  0.65058937    -0.88000
C1606       C  0.57908436  0.22359607  0.60377241     0.84200
C1607       C  0.65144689  0.22545639  0.60735708     1.05800
H1608       H  0.53918528  0.16041788  0.64155583     0.37600
O1609       O  0.55155613  0.15065023  0.63933856    -1.10700
O1610       O  0.55789413  0.10350903  0.61048386    -0.67300
Ni1611     Ni  0.54605896  0.13420634  0.60240025     1.26300
O1612       O  0.58234212  0.21148726  0.62565128    -0.67600
O1613       O  0.50355459  0.10458784  0.60765064    -0.79900
C1614       C  0.54328089  0.13753138  0.54523021     0.83600
O1615       O  0.54115999  0.12009853  0.56496736    -0.67000
Ni1616     Ni  0.54170504  0.12217785  0.66927357     1.27400
Ni1617     Ni  0.59417214  0.18134854  0.63453257     1.26100
H1618       H  0.60062853  0.15408123  0.59650491     0.38100
O1619       O  0.93900003  0.10905748  0.45296823    -0.81800
O1620       O  0.90060286  0.09789242  0.32792641    -0.66500
O1621       O  0.90948200  0.07767432  0.40271596    -1.13100
C1622       C  0.50413641  0.08966846  0.36939712     1.05100
O1623       O  0.91411748  0.06494528  0.31156729    -0.79700
O1624       O  0.92929322  0.03376454  0.34624753    -0.67300
Ni1625     Ni  0.89986831  0.09513655  0.43403527     1.34900
C1626       C  0.92571474  0.02431899  0.37106188     0.83800
O1627       O  0.86247756  0.07895886  0.37219475    -0.80300
O1628       O  0.85947801  0.08225517  0.41874518    -0.90500
C1629       C  0.90386518  0.08321463  0.30771031     0.83400
O1630       O  0.91548151  0.13582312  0.41986030    -0.68700
O1631       O  0.98985112  0.08074914  0.34649517    -0.88000
C1632       C  0.92148901  0.14730560  0.39561369     0.84200
C1633       C  0.84768833  0.07748086  0.39437628     1.05800
H1634       H  0.95908017  0.11767222  0.35752652     0.37600
O1635       O  0.94530149  0.09583048  0.36050908    -1.10700
O1636       O  0.93525795  0.04268053  0.39193483    -0.67300
Ni1637     Ni  0.95111104  0.08648577  0.39761638     1.26300
O1638       O  0.91927754  0.13139621  0.37393859    -0.67600
O1639       O  0.99262325  0.09512694  0.39119509    -0.79900
C1640       C  0.95573545  0.09655313  0.45467224     0.83600
O1641       O  0.95629964  0.07938904  0.43540488    -0.67000
Ni1642     Ni  0.95153997  0.07389945  0.33068018     1.27400
Ni1643     Ni  0.90407196  0.08809596  0.36584317     1.26100
H1644       H  0.89607850  0.05557691  0.40437013     0.38100
O1645       O  0.84365691  0.40472874  0.81060123    -0.81800
O1646       O  0.87348747  0.40524206  0.93985673    -0.66500
O1647       O  0.84342268  0.38470924  0.86506451    -1.13100
C1648       C  0.77120471  0.41371911  0.89852877     1.05100
O1649       O  0.82637514  0.37680524  0.95646237    -0.79700
O1650       O  0.77557152  0.35195057  0.92392016    -0.67300
Ni1651     Ni  0.87277587  0.40329112  0.83553696     1.34900
C1652       C  0.76858900  0.34077661  0.89946933     0.83800
O1653       O  0.88950747  0.38272561  0.89713840    -0.80300
O1654       O  0.90604688  0.40292295  0.85519615    -0.90500
C1655       C  0.85553327  0.38884535  0.95914276     0.83400
O1656       O  0.88541199  0.44401079  0.84858832    -0.68700
O1657       O  0.77677293  0.40701984  0.92260200    -0.88000
C1658       C  0.89678263  0.45535391  0.87237012     0.84200
C1659       C  0.90923780  0.39167535  0.87766441     1.05800
H1660       H  0.84059920  0.43064434  0.90846833     0.37600
O1661       O  0.83003709  0.40837751  0.90664454    -1.10700
O1662       O  0.78189891  0.35624987  0.87780636    -0.67300
Ni1663     Ni  0.81354371  0.39808537  0.86988669     1.26300
O1664       O  0.89113264  0.43822945  0.89362500    -0.67600
O1665       O  0.78456040  0.41201927  0.87637337    -0.79900
C1666       C  0.81501234  0.39596620  0.81032798     0.83600
O1667       O  0.79857907  0.38865809  0.83221755    -0.67000
Ni1668     Ni  0.80283470  0.39258600  0.93787510     1.27400
Ni1669     Ni  0.85986265  0.39574184  0.90216821     1.26100
H1670       H  0.83308508  0.36248999  0.86283155     0.38100
O1671       O  0.92695510  0.33463083  0.19368521    -0.81800
O1672       O  0.92044593  0.36419698  0.06658417    -0.66500
O1673       O  0.90212303  0.33589839  0.14150094    -1.13100
C1674       C  0.92309732  0.25826258  0.10684520     1.05100
O1675       O  0.89073078  0.31699479  0.04956928    -0.79700
O1676       O  0.86592567  0.26575602  0.08123604    -0.67300
Ni1677     Ni  0.92426510  0.36455208  0.17084869     1.34900
C1678       C  0.85340031  0.26090593  0.10508106     0.83800
O1679       O  0.90185324  0.38280489  0.11065212    -0.80300
O1680       O  0.92337419  0.39835953  0.15269057    -0.90500
C1681       C  0.90255367  0.34618402  0.04789401     0.83400
O1682       O  0.96360344  0.37562179  0.15570441    -0.68700
O1683       O  0.92061774  0.26662973  0.08238181    -0.88000
C1684       C  0.97374681  0.38599554  0.13163140     0.84200
C1685       C  0.91189944  0.40233416  0.13055761     1.05800
H1686       H  0.94473365  0.32919870  0.09816374     0.37600
O1687       O  0.92250033  0.31977495  0.09938092    -1.10700
O1688       O  0.86804104  0.27522044  0.12698017    -0.67300
Ni1689     Ni  0.91088489  0.30310243  0.13585371     1.26300
O1690       O  0.95559069  0.38107611  0.11127873    -0.67600
O1691       O  0.92024307  0.27087524  0.12901302    -0.79900
C1692       C  0.91224529  0.30528347  0.19471675     0.83600
O1693       O  0.89998430  0.28840572  0.17331223    -0.67000
Ni1694     Ni  0.90648666  0.29309175  0.06757999     1.27400
Ni1695     Ni  0.91226988  0.35141920  0.10438488     1.26100
H1696       H  0.88022568  0.32759038  0.14454830     0.38100
O1697       O  0.66053506  0.08046690  0.19012231    -0.81800
O1698       O  0.63239888  0.03331689  0.06712543    -0.66500
O1699       O  0.65991709  0.04802603  0.14219971    -1.13100
C1700       C  0.73879986  0.14509231  0.10734368     1.05100
O1701       O  0.67978951  0.05289042  0.04993289    -0.79700
O1702       O  0.73006229  0.07934121  0.08275788    -0.67300
Ni1703     Ni  0.63193906  0.04215910  0.17170957     1.34900
C1704       C  0.73436142  0.07174814  0.10669020     0.83800
O1705       O  0.61319182  0.49935800  0.11211041    -0.80300
O1706       O  0.60065703  0.50281778  0.15640176    -0.90500
C1707       C  0.65077727  0.03429026  0.04843605     0.83400
O1708       O  0.61340119  0.06312749  0.15501141    -0.68700
O1709       O  0.73010695  0.13352126  0.08298538    -0.88000
C1710       C  0.60677643  0.06504325  0.12997572     0.84200
C1711       C  0.59606091  0.48811294  0.13338563     1.05800
H1712       H  0.66730983  0.09534752  0.09788797     0.37600
O1713       O  0.67668399  0.08260622  0.09950880    -1.10700
O1714       O  0.72032498  0.07296279  0.12842701    -0.67300
Ni1715     Ni  0.69320287  0.08901535  0.13630910     1.26300
O1716       O  0.61552030  0.05484475  0.10958932    -0.67600
O1717       O  0.72621672  0.13025815  0.12952492    -0.79900
C1718       C  0.68937293  0.09157040  0.19394452     0.83600
O1719       O  0.70702299  0.09347477  0.17406898    -0.67000
Ni1720     Ni  0.70353010  0.09268353  0.06818764     1.27400
Ni1721     Ni  0.64484900  0.04066983  0.10504436     1.26100
H1722       H  0.66815011  0.03456191  0.14576143     0.38100
O1723       O  0.57354270  0.40738021  0.81174430    -0.81800
O1724       O  0.59384788  0.45447395  0.93415622    -0.66500
O1725       O  0.60668368  0.44053405  0.85860952    -1.13100
C1726       C  0.58580941  0.34194151  0.89189967     1.05100
O1727       O  0.62031866  0.43347847  0.95104132    -0.79700
O1728       O  0.64401156  0.40672600  0.91761358    -0.67300
Ni1729     Ni  0.58400002  0.44606101  0.82969255     1.34900
C1730       C  0.65676930  0.41457715  0.89384806     0.83800
O1731       O  0.60822313  0.48922656  0.88902390    -0.80300
O1732       O  0.59252436  0.48554813  0.84473853    -0.90500
C1733       C  0.61043496  0.45245517  0.95292130     0.83400
O1734       O  0.54436845  0.42553288  0.84703412    -0.68700
O1735       O  0.58842221  0.35316013  0.91642076    -0.88000
C1736       C  0.53607884  0.42399716  0.87223750     0.84200
C1737       C  0.60227825  0.50037159  0.86773463     1.05800
H1738       H  0.56628837  0.39284342  0.90222619     0.37600
O1739       O  0.58853135  0.40550451  0.90085738    -1.10700
O1740       O  0.64226783  0.41485621  0.87214527    -0.67300
Ni1741     Ni  0.59890365  0.39937362  0.86393491     1.26300
O1742       O  0.55530339  0.43352534  0.89221463    -0.67600
O1743       O  0.58985902  0.35768286  0.86998027    -0.79900
C1744       C  0.59138745  0.39669398  0.80666593     0.83600
O1745       O  0.60805307  0.39518955  0.82576263    -0.67000
Ni1746     Ni  0.60380996  0.39400134  0.93196457     1.27400
Ni1747     Ni  0.59887468  0.44768379  0.89594501     1.26100
H1748       H  0.62843938  0.45406733  0.85480778     0.38100
O1749       O  0.57917173  0.15147174  0.80596787    -0.81800
O1750       O  0.54130118  0.11933980  0.93284279    -0.66500
O1751       O  0.55415097  0.14883952  0.85862826    -1.13100
C1752       C  0.65112324  0.22758098  0.89564736     1.05100
O1753       O  0.55796433  0.16598614  0.95116753    -0.79700
O1754       O  0.58351833  0.21768349  0.91913618    -0.67300
Ni1755     Ni  0.54889491  0.12009530  0.82966196     1.34900
C1756       C  0.57807890  0.22335401  0.89475213     0.83800
O1757       O  0.50593535  0.10121259  0.88803609    -0.80300
O1758       O  0.51594394  0.08470940  0.84828770    -0.90500
C1759       C  0.54126949  0.13663149  0.95222443     0.83400
O1760       O  0.57958997  0.11261625  0.84498000    -0.68700
O1761       O  0.63884282  0.21951024  0.91972122    -0.88000
C1762       C  0.57772466  0.10074635  0.86866563     0.84200
C1763       C  0.99753846  0.08152357  0.86947398     1.05800
H1764       H  0.60211203  0.15598276  0.90365568     0.37600
O1765       O  0.58909441  0.16502495  0.90177861    -1.10700
O1766       O  0.58043076  0.20974409  0.87313281    -0.67300
Ni1767     Ni  0.59570597  0.18190866  0.86536439     1.26300
O1768       O  0.56236664  0.10391592  0.88850026    -0.67600
O1769       O  0.63711947  0.21439560  0.87309933    -0.79900
C1770       C  0.59473462  0.18084314  0.80619248     0.83600
O1771       O  0.60120027  0.19700066  0.82827640    -0.67000
Ni1772     Ni  0.59784602  0.19158058  0.93354689     1.27400
Ni1773     Ni  0.54750636  0.13285494  0.89543801     1.26100
H1774       H  0.54053020  0.15692324  0.85515498     0.38100
O1775       O  0.92589875  0.07420334  0.19208345    -0.81800
O1776       O  0.95710613  0.07478070  0.06362803    -0.66500
O1777       O  0.94864518  0.09655818  0.13816952    -1.13100
C1778       C  0.84936797  0.07362664  0.10676182     1.05100
O1779       O  0.93840268  0.10251171  0.04529744    -0.79700
O1780       O  0.91883735  0.13224892  0.07960357    -0.67300
Ni1781     Ni  0.95904749  0.07880283  0.16844478     1.34900
C1782       C  0.92280925  0.14336487  0.10409517     0.83800
O1783       O  0.99555679  0.09567877  0.10571675    -0.80300
O1784       O  0.99439682  0.08156156  0.14974861    -0.90500
C1785       C  0.95583726  0.09078966  0.04403397     0.83400
O1786       O  0.93374205  0.03747206  0.15596559    -0.68700
O1787       O  0.86161061  0.08044483  0.08259738    -0.88000
C1788       C  0.93084867  0.02558547  0.13196415     0.84200
C1789       C  0.50755032  0.08994408  0.12518929     1.05800
H1790       H  0.89852057  0.05170083  0.09503585     0.37600
O1791       O  0.91121195  0.07391248  0.09683357    -1.10700
O1792       O  0.91807255  0.12714986  0.12574178    -0.67300
Ni1793     Ni  0.90593570  0.08487727  0.13377181     1.26300
O1794       O  0.93964602  0.04186443  0.10990003    -0.67600
O1795       O  0.86348310  0.07244520  0.12822876    -0.79900
C1796       C  0.90798406  0.08528495  0.19269321     0.83600
O1797       O  0.90134755  0.09521146  0.17123540    -0.67000
Ni1798     Ni  0.90075258  0.09080942  0.06590957     1.27400
Ni1799     Ni  0.95332117  0.08472821  0.10114753     1.26100
H1800       H  0.96125021  0.11878570  0.13989320     0.38100
C1801       C  0.51958105  0.12246090  0.97556050    -0.07100
C1802       C  0.98884721  0.10530791  0.97085432    -0.18200
C1803       C  0.96705468  0.09363431  0.99241898     0.10100
C1804       C  0.97728947  0.09867155  0.02033373    -0.07000
C1805       C  0.50811015  0.11176465  0.02471560    -0.18200
C1806       C  0.52979017  0.12342791  0.00306340     0.10200
S1807       S  0.92663495  0.07280803  0.98299607    -0.33200
S1808       S  0.57009515  0.13967597  0.01189359    -0.33200
H1809       H  0.57915798  0.13262255  0.98638023     0.28200
H1810       H  0.91655055  0.05358503  0.00642953     0.28200
H1811       H  0.98084219  0.10183026  0.94947743     0.18800
H1812       H  0.51620926  0.11350992  0.04590695     0.18800
C1813       C  0.57174987  0.24923041  0.89114948    -0.07100
C1814       C  0.58320606  0.26752448  0.86721297    -0.18200
C1815       C  0.58710241  0.29729394  0.86620213     0.10100
C1816       C  0.57835836  0.30907187  0.88937643    -0.07000
C1817       C  0.56360924  0.28920448  0.91192225    -0.18200
C1818       C  0.55984152  0.25951285  0.91287274     0.10200
S1819       S  0.60624113  0.31977408  0.83586157    -0.33200
S1820       S  0.53943879  0.23582729  0.94231011    -0.33200
H1821       H  0.52740158  0.20753790  0.92770622     0.28200
H1822       H  0.62952961  0.34424010  0.85157531     0.28200
H1823       H  0.59174529  0.25976720  0.84998536     0.18800
H1824       H  0.55536224  0.29703548  0.92933331     0.18800
C1825       C  0.60429151  0.03096012  0.87029027    -0.07100
C1826       C  0.59382045  0.03819248  0.89487772    -0.18200
C1827       C  0.58798824  0.06287538  0.89615440     0.10100
C1828       C  0.59141828  0.08026081  0.87185890    -0.07000
C1829       C  0.60508305  0.07492008  0.84828122    -0.18200
C1830       C  0.61191190  0.05099235  0.84739648     0.10200
S1831       S  0.57540687  0.06998033  0.92921736    -0.33200
S1832       S  0.62986772  0.04697208  0.81619234    -0.33200
H1833       H  0.64584623  0.53438991  0.82944433     0.28200
H1834       H  0.59455486  0.10231943  0.92772844     0.28200
H1835       H  0.58861630  0.02355897  0.91291090     0.18800
H1836       H  0.60949574  0.08871046  0.82977962     0.18800
C1837       C  0.61985778  0.47363023  0.97717243    -0.07100
C1838       C  0.61462597  0.46115063  0.00398106    -0.18200
C1839       C  0.62432603  0.48034131  0.02764724     0.10100
C1840       C  0.63875594  0.01270343  0.02459367    -0.07000
C1841       C  0.64397473  0.02511989  0.99783621    -0.18200
C1842       C  0.63524581  0.50611199  0.97416332     0.10200
S1843       S  0.61943970  0.46214177  0.06090140    -0.33200
S1844       S  0.64671995  0.02475686  0.94099471    -0.33200
H1845       H  0.65404927  0.50345269  0.92911152     0.28200
H1846       H  0.64713419  0.48584438  0.07257336     0.28200
H1847       H  0.60353765  0.43630886  0.00646636     0.18800
H1848       H  0.65587399  0.05000551  0.99532023     0.18800
C1849       C  0.58641827  0.07810232  0.12468910    -0.07100
C1850       C  0.56534062  0.06613967  0.10241774    -0.18200
C1851       C  0.54045957  0.07152238  0.10071298     0.10100
C1852       C  0.53672649  0.08964864  0.12150908    -0.07000
C1853       C  0.55953380  0.10409593  0.14204256    -0.18200
C1854       C  0.58457680  0.09910939  0.14351884     0.10200
S1855       S  0.51256175  0.05177678  0.07341258    -0.33200
S1856       S  0.61308790  0.12007253  0.17013945    -0.33200
H1857       H  0.63822559  0.12266534  0.15458343     0.28200
H1858       H  0.48710405  0.03914675  0.09157022     0.28200
H1859       H  0.56667928  0.05041410  0.08752268     0.18800
H1860       H  0.55730480  0.11870590  0.15762941     0.18800
C1861       C  0.75902338  0.06385822  0.10945533    -0.07100
C1862       C  0.77790948  0.07449708  0.13321563    -0.18200
C1863       C  0.80705375  0.07696638  0.13346183     0.10100
C1864       C  0.81731219  0.06761336  0.10968887    -0.07000
C1865       C  0.79703567  0.05413964  0.08705527    -0.18200
C1866       C  0.76797606  0.05176572  0.08682536     0.10200
S1867       S  0.83112493  0.09563723  0.16342655    -0.33200
S1868       S  0.74368326  0.03355911  0.05682036    -0.33200
H1869       H  0.71556010  0.02220816  0.07136474     0.28200
H1870       H  0.85673823  0.11664176  0.14757010     0.28200
H1871       H  0.77130467  0.08375298  0.15075384     0.18800
H1872       H  0.80414077  0.04595484  0.06907160     0.18800
C1873       C  0.00782518  0.40659960  0.12843450    -0.07100
C1874       C  0.52550654  0.41211697  0.15173860    -0.18200
C1875       C  0.55596124  0.43666426  0.15301005     0.10100
C1876       C  0.56801902  0.45737765  0.13061735    -0.07000
C1877       C  0.55072844  0.45042970  0.10596406    -0.18200
C1878       C  0.52050972  0.42529850  0.10431029     0.10200
S1879       S  0.57792940  0.44068401  0.18401418    -0.33200
S1880       S  0.00287195  0.41699971  0.07098906    -0.33200
H1881       H  0.99059711  0.38479317  0.07210982     0.28200
H1882       H  0.60691238  0.45482712  0.17065133     0.28200
H1883       H  0.51617281  0.39759074  0.16987342     0.18800
H1884       H  0.56019388  0.46563013  0.08824385     0.18800
C1885       C  0.82092066  0.23539702  0.10777731    -0.07100
C1886       C  0.81274816  0.21718534  0.13178074    -0.18200
C1887       C  0.78584044  0.18813352  0.13274778     0.10100
C1888       C  0.76561672  0.17715904  0.10946410    -0.07000
C1889       C  0.77259046  0.19671354  0.08642601    -0.18200
C1890       C  0.79966967  0.22560924  0.08542071     0.10200
S1891       S  0.78080385  0.16535657  0.16322414    -0.33200
S1892       S  0.80565628  0.24880339  0.05500380    -0.33200
H1893       H  0.82190930  0.27738061  0.06916357     0.28200
H1894       H  0.77789467  0.13989399  0.14785002     0.28200
H1895       H  0.82869064  0.22442240  0.14917486     0.18800
H1896       H  0.75706775  0.18924019  0.06870684     0.18800
C1897       C  0.91136387  0.43152807  0.12835608    -0.07100
C1898       C  0.90302962  0.44222841  0.15206878    -0.18200
C1899       C  0.90641458  0.47178385  0.15317418     0.10100
C1900       C  0.91924497  0.49171638  0.12997777    -0.07000
C1901       C  0.92494988  0.47980239  0.10539678    -0.18200
C1902       C  0.92147851  0.45022498  0.10442270     0.10200
S1903       S  0.89387208  0.48302234  0.18439612    -0.33200
S1904       S  0.93318469  0.43905972  0.07291874    -0.33200
H1905       H  0.95073785  0.42850615  0.08681051     0.28200
H1906       H  0.88728945  0.95718661  0.20056937     0.28200
H1907       H  0.89433497  0.42740702  0.17006515     0.18800
H1908       H  0.93426738  0.49433687  0.08727318     0.18800
C1909       C  0.93046151  0.17601172  0.10767855    -0.07100
C1910       C  0.91795613  0.18338158  0.13076431    -0.18200
C1911       C  0.91634580  0.21049292  0.13170992     0.10100
C1912       C  0.92831956  0.23159535  0.10931353    -0.07000
C1913       C  0.94359177  0.22559603  0.08755765    -0.18200
C1914       C  0.94525732  0.19844998  0.08675059     0.10200
S1915       S  0.89562225  0.21464247  0.16070655    -0.33200
S1916       S  0.96678792  0.19397078  0.05863193    -0.33200
H1917       H  0.97629323  0.17641690  0.07403330     0.28200
H1918       H  0.87519688  0.21870330  0.14361896     0.28200
H1919       H  0.90693713  0.16671684  0.14724617     0.18800
H1920       H  0.95393367  0.24196793  0.07075428     0.18800
C1921       C  0.68295485  0.25458088  0.89398968    -0.07100
C1922       C  0.70466552  0.25868535  0.91452979    -0.18200
C1923       C  0.73397025  0.28545257  0.91555642     0.10100
C1924       C  0.74178498  0.30910735  0.89589643    -0.07000
C1925       C  0.72082391  0.30414576  0.87440354    -0.18200
C1926       C  0.69150513  0.27761662  0.87350142     0.10200
S1927       S  0.76031719  0.28797510  0.94234824    -0.33200
S1928       S  0.66493974  0.27657729  0.84771828    -0.33200
H1929       H  0.64090568  0.26823497  0.86704793     0.28200
H1930       H  0.78739667  0.30627665  0.92687905     0.28200
H1931       H  0.69862988  0.24104679  0.93010960     0.18800
H1932       H  0.72627370  0.32225159  0.85944219     0.18800
C1933       C  0.91895978  0.48947204  0.87431755    -0.07100
C1934       C  0.92527089  0.00676871  0.84971512    -0.18200
C1935       C  0.94928386  0.03742987  0.84817901     0.10100
C1936       C  0.96805029  0.05185576  0.87170463    -0.07000
C1937       C  0.96057661  0.03577707  0.89691306    -0.18200
C1938       C  0.93629176  0.00498851  0.89859438     0.10200
S1939       S  0.95512030  0.05663155  0.81525691    -0.33200
S1940       S  0.93021295  0.48675461  0.93199599    -0.33200
H1941       H  0.89815334  0.47569893  0.93189126     0.28200
H1942       H  0.96621074  0.08634533  0.82680662     0.28200
H1943       H  0.91196179  0.49611082  0.83100312     0.18800
H1944       H  0.97471305  0.04677645  0.91516728     0.18800
C1945       C  0.74629492  0.42169779  0.89591991    -0.07100
C1946       C  0.73010812  0.41512054  0.87059273    -0.18200
C1947       C  0.70243330  0.41565816  0.86835233     0.10100
C1948       C  0.68973288  0.42216869  0.89212072    -0.07000
C1949       C  0.70749382  0.43160674  0.91671171    -0.18200
C1950       C  0.73564015  0.43199866  0.91873876     0.10200
S1951       S  0.68342736  0.40518308  0.83515056    -0.33200
S1952       S  0.75643494  0.44564209  0.95116614    -0.33200
H1953       H  0.78591330  0.46000211  0.93869214     0.28200
H1954       H  0.68155035  0.43229051  0.83386415     0.28200
H1955       H  0.73812284  0.40785581  0.85260869     0.18800
H1956       H  0.69891413  0.43788264  0.93494709     0.18800
C1957       C  0.93830224  0.39131018  0.88114863    -0.07100
C1958       C  0.95854690  0.40915561  0.90260929    -0.18200
C1959       C  0.98993020  0.41767370  0.90185374     0.10100
C1960       C  0.50245806  0.41073059  0.87795651    -0.07000
C1961       C  0.98037246  0.38845171  0.85871114    -0.18200
C1962       C  0.94901789  0.37939097  0.85993365     0.10200
S1963       S  0.01403079  0.44217284  0.92972892    -0.33200
S1964       S  0.92386453  0.35357727  0.83311885    -0.33200
H1965       H  0.89666816  0.34106316  0.84920291     0.28200
H1966       H  0.52528441  0.42739414  0.93636035     0.28200
H1967       H  0.95038523  0.41830923  0.91904535     0.18800
H1968       H  0.98839253  0.38025705  0.84139575     0.18800
C1969       C  0.86847894  0.38095255  0.98367997    -0.07100
C1970       C  0.89914705  0.38667314  0.98243826    -0.18200
C1971       C  0.91119293  0.37599480  0.00308742     0.10100
C1972       C  0.89218036  0.35885273  0.02553641    -0.07000
C1973       C  0.86212960  0.35408125  0.02743763    -0.18200
C1974       C  0.85038859  0.36553948  0.00738649     0.10200
S1975       S  0.95063251  0.38446807  0.99909569    -0.33200
S1976       S  0.81262000  0.36050638  0.01418190    -0.33200
H1977       H  0.82109484  0.39077458  0.00626805     0.28200
H1978       H  0.94788481  0.35963436  0.01470765     0.28200
H1979       H  0.91368662  0.39874599  0.96480979     0.18800
H1980       H  0.84782748  0.34181435  0.04515436     0.17600
C1981       C  0.89588861  0.08709856  0.22017313    -0.07100
C1982       C  0.91297005  0.11475153  0.23517773    -0.18200
C1983       C  0.91410996  0.11477275  0.26428251     0.10100
C1984       C  0.89627629  0.08681235  0.27884077    -0.07000
C1985       C  0.87606333  0.05992488  0.26374070    -0.18200
C1986       C  0.87572023  0.05981784  0.23458641     0.10200
S1987       S  0.94283546  0.15004350  0.28080493    -0.33200
S1988       S  0.85167556  0.02356628  0.21673772    -0.33200
H1989       H  0.85086445  0.03673734  0.19125692     0.28200
H1990       H  0.95370560  0.13606190  0.29931076     0.28200
H1991       H  0.92888983  0.13563749  0.22417338     0.18800
H1992       H  0.86234403  0.03831672  0.27462457     0.18800
C1993       C  0.60378252  0.19496571  0.72051460    -0.07100
C1994       C  0.58595107  0.20461457  0.73550033    -0.18200
C1995       C  0.58618955  0.20504092  0.76463268     0.10100
C1996       C  0.60463900  0.19561135  0.77892247    -0.07000
C1997       C  0.62554538  0.19013792  0.76383731    -0.18200
C1998       C  0.62540836  0.18990356  0.73473426     0.10200
S1999       S  0.55848923  0.21233569  0.78220724    -0.33200
S2000       S  0.65037318  0.17903334  0.71684145    -0.33200
H2001       H  0.64998678  0.19208389  0.69116527     0.28200
H2002       H  0.57615887  0.22463683  0.80652879     0.28200
H2003       H  0.56917544  0.20836436  0.72462784     0.18800
H2004       H  0.63971275  0.18281686  0.77467422     0.18800
C2005       C  0.52125884  0.12446779  0.52193725    -0.07100
C2006       C  0.98925705  0.11423408  0.52785563    -0.18200
C2007       C  0.96739744  0.10404604  0.50636822     0.10100
C2008       C  0.97693694  0.10417737  0.47860959    -0.07000
C2009       C  0.50885897  0.11413722  0.47279073    -0.18200
C2010       C  0.53075236  0.12421206  0.49428611     0.10200
S2011       S  0.92779379  0.09115662  0.51578858    -0.33200
S2012       S  0.57041800  0.13710933  0.48500032    -0.33200
H2013       H  0.57902784  0.13017361  0.51053196     0.28200
H2014       H  0.91450692  0.06843804  0.49472606     0.28200
H2015       H  0.98189523  0.11477226  0.54902054     0.18800
H2016       H  0.51643278  0.11460794  0.45152727     0.18800
C2017       C  0.58470113  0.38052115  0.71967587    -0.07100
C2018       C  0.61414495  0.39447809  0.73194495    -0.18200
C2019       C  0.61751954  0.39748923  0.76098082     0.10100
C2020       C  0.59083588  0.38527945  0.77802686    -0.07000
C2021       C  0.56163860  0.36719843  0.76559000    -0.18200
C2022       C  0.55833800  0.36462296  0.73667449     0.10200
S2023       S  0.65615347  0.42089976  0.77435553    -0.33200
S2024       S  0.51971146  0.34330790  0.72253894    -0.33200
H2025       H  0.52870049  0.33874370  0.69591840     0.28200
H2026       H  0.64886544  0.43820417  0.79295308     0.28200
H2027       H  0.63452088  0.40664417  0.71895245     0.18800
H2028       H  0.54100073  0.35713585  0.77842765     0.18800
C2029       C  0.56772833  0.30359800  0.60438003    -0.07100
C2030       C  0.57358443  0.29327578  0.62947073    -0.18200
C2031       C  0.57436769  0.26569729  0.63077814     0.10100
C2032       C  0.57066676  0.24832087  0.60605226    -0.07000
C2033       C  0.56184716  0.25717874  0.58162444    -0.18200
C2034       C  0.55953449  0.28389342  0.58069285     0.10200
S2035       S  0.58165076  0.25529268  0.66449643    -0.33200
S2036       S  0.54584049  0.29116962  0.54859363    -0.33200
H2037       H  0.52941367  0.30386154  0.56168593     0.28200
H2038       H  0.55603193  0.22506300  0.66298434     0.28200
H2039       H  0.57886300  0.30739484  0.64814912     0.18800
H2040       H  0.55719409  0.24346293  0.56275257     0.18800
C2041       C  0.58792076  0.02232309  0.62717084    -0.07100
C2042       C  0.59919738  0.04321527  0.64964346    -0.18200
C2043       C  0.59617968  0.06955713  0.65047113     0.10100
C2044       C  0.58000675  0.07465391  0.62887763    -0.07000
C2045       C  0.57104445  0.05505919  0.60530813    -0.18200
C2046       C  0.57469452  0.02904788  0.60425269     0.10200
S2047       S  0.61366796  0.09551349  0.67971437    -0.33200
S2048       S  0.55923937  0.00394796  0.57424376    -0.33200
H2049       H  0.54412774  0.47665161  0.58981090     0.28200
H2050       H  0.62347146  0.12252024  0.66408055     0.28200
H2051       H  0.61020784  0.03876477  0.66694291     0.18800
H2052       H  0.55908958  0.05866605  0.58830147     0.18800
C2053       C  0.70139716  0.10165836  0.22240848    -0.07100
C2054       C  0.71568012  0.08715449  0.23558296    -0.18200
C2055       C  0.71586283  0.08545846  0.26472842     0.10100
C2056       C  0.70135195  0.09838372  0.28081336    -0.07000
C2057       C  0.69132448  0.11668905  0.26767314    -0.18200
C2058       C  0.69133929  0.11859155  0.23871639     0.10200
S2059       S  0.73039537  0.06249050  0.27991035    -0.33200
S2060       S  0.67516764  0.14027151  0.22372094    -0.33200
H2061       H  0.69022916  0.14505873  0.19788789     0.28200
H2062       H  0.74215359  0.08108101  0.30393118     0.28200
H2063       H  0.72368309  0.07427828  0.22322434     0.18800
H2064       H  0.68047651  0.12700319  0.27990310     0.18800
C2065       C  0.62696657  0.00776308  0.47641982    -0.07100
C2066       C  0.63482248  0.02008755  0.50345269    -0.18200
C2067       C  0.62541829  0.50080718  0.52665285     0.10100
C2068       C  0.60693610  0.46844295  0.52292834    -0.07000
C2069       C  0.59866109  0.45611836  0.49597435    -0.18200
C2070       C  0.60884505  0.47530288  0.47270896     0.10200
S2071       S  0.63991619  0.01896308  0.56012861    -0.33200
S2072       S  0.60041644  0.45666507  0.43909106    -0.33200
H2073       H  0.62978333  0.47687334  0.42785521     0.28200
H2074       H  0.64366629  0.49506152  0.57094225     0.28200
H2075       H  0.64931208  0.04487055  0.50642767     0.18800
H2076       H  0.58514990  0.43125155  0.49299395     0.18800
C2077       C  0.58524727  0.08077992  0.37308423    -0.07100
C2078       C  0.57841588  0.09173460  0.34878695    -0.18200
C2079       C  0.55380029  0.09751305  0.34770311     0.10100
C2080       C  0.53480990  0.09173349  0.37134748    -0.07000
C2081       C  0.54379871  0.08451797  0.39656720    -0.18200
C2082       C  0.56914531  0.07969649  0.39784885     0.10200
S2083       S  0.54681745  0.11185545  0.31574166    -0.33200
S2084       S  0.57930850  0.07213222  0.43159264    -0.33200
H2085       H  0.61141519  0.09003050  0.42697320     0.28200
H2086       H  0.07492936  0.11866584  0.30259567     0.28200
H2087       H  0.59136330  0.09430153  0.32991545     0.18800
H2088       H  0.53026663  0.08135448  0.41521784     0.18800
C2089       C  0.81516835  0.07034476  0.39196219    -0.07100
C2090       C  0.79377417  0.05222808  0.41255192    -0.18200
C2091       C  0.76351286  0.04712712  0.41268819     0.10100
C2092       C  0.75437468  0.06086847  0.39209153    -0.07000
C2093       C  0.77494487  0.07688678  0.37033300    -0.18200
C2094       C  0.80520925  0.08222855  0.37027923     0.10200
S2095       S  0.73770979  0.02306434  0.43970189    -0.33200
S2096       S  0.83080020  0.10754008  0.34382171    -0.33200
H2097       H  0.85464751  0.12566614  0.36278567     0.28200
H2098       H  0.71035186  0.01324950  0.42435828     0.28200
H2099       H  0.80078962  0.04226543  0.42888553     0.18800
H2100       H  0.76846473  0.08798502  0.35462538     0.18800
C2101       C  0.90405427  0.29000343  0.28109904    -0.07100
C2102       C  0.93315131  0.30185402  0.26842553    -0.18200
C2103       C  0.93611704  0.30245677  0.23942376     0.10100
C2104       C  0.90954491  0.29172305  0.22252114    -0.07000
C2105       C  0.88023668  0.27604190  0.23511047    -0.18200
C2106       C  0.87726058  0.27486599  0.26427070     0.10200
S2107       S  0.97465546  0.32034760  0.22503452    -0.33200
S2108       S  0.83888538  0.25752383  0.27875143    -0.33200
H2109       H  0.84663432  0.24890827  0.30385925     0.28200
H2110       H  0.96551724  0.30559157  0.19885948     0.28200
H2111       H  0.95389792  0.31336509  0.28110446     0.18800
H2112       H  0.85965189  0.26754280  0.22236768     0.18800
C2113       C  0.89828866  0.42849627  0.37857123    -0.07100
C2114       C  0.88618221  0.43787645  0.35696195    -0.18200
C2115       C  0.89192459  0.46826478  0.35556981     0.10100
C2116       C  0.91152809  0.49049841  0.37556565    -0.07000
C2117       C  0.92107342  0.48036506  0.39861137    -0.18200
C2118       C  0.91485368  0.44981416  0.40022537     0.10200
S2119       S  0.87363040  0.47706781  0.32769034    -0.33200
S2120       S  0.93187035  0.44073228  0.42874329    -0.33200
H2121       H  0.94473709  0.42736885  0.41156799     0.28200
H2122       H  0.86989871  0.99908902  0.34320796     0.28200
H2123       H  0.87283575  0.42156762  0.34055665     0.18800
H2124       H  0.93567203  0.49687968  0.41439019     0.18800
C2125       C  0.93108019  0.23803616  0.39544092    -0.07100
C2126       C  0.92381128  0.22067658  0.37059887    -0.18200
C2127       C  0.92347615  0.19253200  0.36905829     0.10100
C2128       C  0.92972696  0.18042134  0.39312177    -0.07000
C2129       C  0.93997187  0.19930369  0.41714415    -0.18200
C2130       C  0.94131245  0.22796220  0.41842989     0.10200
S2131       S  0.91293363  0.17268540  0.33611964    -0.33200
S2132       S  0.95588550  0.25000911  0.45026754    -0.33200
H2133       H  0.97105359  0.27884504  0.43693286     0.28200
H2134       H  0.93942495  0.16966403  0.33583620     0.28200
H2135       H  0.91668736  0.22817466  0.35243150     0.18800
H2136       H  0.94618883  0.19128641  0.43553750     0.18800
C2137       C  0.55495473  0.45919998  0.37204561    -0.07100
C2138       C  0.54539660  0.43673475  0.35092520    -0.18200
C2139       C  0.51588002  0.41036794  0.35129851     0.10100
C2140       C  0.99502968  0.40682433  0.37303917    -0.07000
C2141       C  0.50545508  0.42819826  0.39503175    -0.18200
C2142       C  0.53501564  0.45438551  0.39472052     0.10200
S2143       S  0.50716109  0.38186965  0.32420853    -0.33200
S2144       S  0.54462117  0.48244725  0.42228846    -0.33200
H2145       H  0.55487218  0.50737951  0.40394331     0.28200
H2146       H  0.98924079  0.35641814  0.34135289     0.28200
H2147       H  0.56105083  0.43980927  0.33395863     0.18800
H2148       H  0.99037917  0.42530763  0.41252614     0.18800
C2149       C  0.81861466  0.22689488  0.39743372    -0.07100
C2150       C  0.81386656  0.20419936  0.41692597    -0.18200
C2151       C  0.78728173  0.17521753  0.41676732     0.10100
C2152       C  0.76341332  0.16841735  0.39742552    -0.07000
C2153       C  0.76816807  0.19063916  0.37732192    -0.18200
C2154       C  0.79544534  0.21979455  0.37714653     0.10200
S2155       S  0.78678332  0.14713139  0.44032749    -0.33200
S2156       S  0.79870223  0.24699599  0.35123973    -0.33200
H2157       H  0.81264730  0.27282235  0.36925286     0.28200
H2158       H  0.77710537  0.12393936  0.41971467     0.28200
H2159       H  0.83181152  0.20847096  0.43186421     0.18800
H2160       H  0.75030901  0.18552245  0.36204028     0.18800
C2161       C  0.79925852  0.39742770  0.72411984    -0.07100
C2162       C  0.80971231  0.42444862  0.74028202    -0.18200
C2163       C  0.81056604  0.42370062  0.76936738     0.10100
C2164       C  0.80166552  0.39553515  0.78283596    -0.07000
C2165       C  0.78812224  0.36803702  0.76699355    -0.18200
C2166       C  0.78621464  0.36866301  0.73781244     0.10200
S2167       S  0.82665243  0.45994490  0.78815672    -0.33200
S2168       S  0.77098235  0.33260368  0.71896766    -0.33200
H2169       H  0.75453839  0.33989161  0.69975189     0.28200
H2170       H  0.81128321  0.44704435  0.81334009     0.28200
H2171       H  0.81956575  0.44665367  0.73009145     0.18800
H2172       H  0.78133838  0.34628018  0.77711108     0.18800
C2173       C  0.68335386  0.25184709  0.61038075    -0.07100
C2174       C  0.70393635  0.25873617  0.58797701    -0.18200
C2175       C  0.73205743  0.28677759  0.58702578     0.10100
C2176       C  0.73986167  0.30833483  0.60907825    -0.07000
C2177       C  0.72108749  0.29989686  0.63285998    -0.18200
C2178       C  0.69270693  0.27235485  0.63355585     0.10200
S2179       S  0.75764445  0.29481636  0.55761207    -0.33200
S2180       S  0.66819622  0.26708231  0.66308686    -0.33200
H2181       H  0.64315801  0.26273423  0.64653203     0.28200
H2182       H  0.73844212  0.26765180  0.54234154     0.28200
H2183       H  0.69733547  0.24262458  0.57064052     0.18800
H2184       H  0.72708633  0.31616023  0.65003195     0.18800
C2185       C  0.91198078  0.49563526  0.62680169    -0.07100
C2186       C  0.93277178  0.00522939  0.60430474    -0.18200
C2187       C  0.95791946  0.03528675  0.60309626     0.10100
C2188       C  0.96243589  0.05657140  0.62463687    -0.07000
C2189       C  0.94025153  0.04794370  0.64576924    -0.18200
C2190       C  0.91486684  0.01780125  0.64697294     0.10200
S2191       S  0.98582458  0.04364372  0.57587977    -0.33200
S2192       S  0.88670848  0.50798363  0.67460977    -0.33200
H2193       H  0.89993565  0.53761401  0.68686760     0.28200
H2194       H  0.98274325  0.06817436  0.56580528     0.28200
H2195       H  0.93070273  0.48862754  0.58856665     0.18800
H2196       H  0.94368396  0.06454002  0.66203988     0.18800
C2197       C  0.73309224  0.41581335  0.61346955    -0.07100
C2198       C  0.72847233  0.43257475  0.59259641    -0.18200
C2199       C  0.70081487  0.43321049  0.59084725     0.10100
C2200       C  0.67712267  0.41666334  0.61040297    -0.07000
C2201       C  0.68304793  0.40281012  0.63300180    -0.18200
C2202       C  0.71047805  0.40183403  0.63459333     0.10200
S2203       S  0.69595572  0.45495626  0.56349134    -0.33200
S2204       S  0.71334341  0.37940913  0.66230998    -0.33200
H2205       H  0.71977014  0.36104393  0.64422573     0.28200
H2206       H  0.72589659  0.46772662  0.55220652     0.28200
H2207       H  0.74613107  0.44414125  0.57689065     0.18800
H2208       H  0.66508861  0.39025910  0.64828237     0.18800
C2209       C  0.93154381  0.39521668  0.62392761    -0.07100
C2210       C  0.94004873  0.38315821  0.64614801    -0.18200
C2211       C  0.96918877  0.38587770  0.64727791     0.10100
C2212       C  0.49078068  0.40233281  0.62479139    -0.07000
C2213       C  0.98134031  0.41109902  0.60236951    -0.18200
C2214       C  0.95191739  0.40794456  0.60108262     0.10200
S2215       S  0.97658849  0.36817465  0.67647546    -0.33200
S2216       S  0.94330055  0.42355512  0.57107814    -0.33200
H2217       H  0.93267071  0.44030404  0.58666404     0.28200
H2218       H  0.49456697  0.35903731  0.65930954     0.28200
H2219       H  0.92407329  0.37221765  0.66324887     0.18800
H2220       H  0.49726861  0.42349049  0.58442770     0.18800
C2221       C  0.85792092  0.38012672  0.52249394    -0.07100
C2222       C  0.84160680  0.34848908  0.51576205    -0.18200
C2223       C  0.85173916  0.33585813  0.49482228     0.10100
C2224       C  0.87941994  0.35544691  0.47997851    -0.07000
C2225       C  0.89589266  0.38712659  0.48707083    -0.18200
C2226       C  0.88524272  0.39970702  0.50762862     0.10200
S2227       S  0.82824852  0.29481157  0.48738527    -0.33200
S2228       S  0.90667839  0.44105868  0.51279660    -0.33200
H2229       H  0.88063160  0.44389874  0.51880713     0.28200
H2230       H  0.80430874  0.28806883  0.50651142     0.28200
H2231       H  0.82084909  0.33344207  0.52735048     0.18800
H2232       H  0.91719614  0.40238572  0.47632001     0.18800
O2233       O  0.81700787  0.87893213  0.54893780    -0.81800
O2234       O  0.79272063  0.88788960  0.67464744    -0.66500
O2235       O  0.82096473  0.91071603  0.59961523    -1.13100
C2236       C  0.90340956  0.89743623  0.62724190     1.05100
O2237       O  0.83965039  0.91885888  0.69135595    -0.79700
O2238       O  0.88457269  0.95200523  0.65513988    -0.67300
Ni2239     Ni  0.79335475  0.89408984  0.56876707     1.34900
C2240       C  0.89107855  0.96208121  0.63053554     0.83800
O2241       O  0.77258692  0.90762717  0.63203210    -0.80300
O2242       O  0.76712064  0.90757002  0.58552915    -0.90500
C2243       C  0.81079321  0.90121684  0.69507104     0.83400
O2244       O  0.76756258  0.85346497  0.58257617    -0.68700
O2245       O  0.89894572  0.90596778  0.65109574    -0.88000
C2246       C  0.76399034  0.84118557  0.60625641     0.84200
C2247       C  0.75950495  0.91035228  0.61036839     1.05800
H2248       H  0.83084580  0.86908008  0.64226262     0.37600
O2249       O  0.83900478  0.89100859  0.63996187    -1.10700
O2250       O  0.88220938  0.94443619  0.60917164    -0.67300
Ni2251     Ni  0.85324117  0.90118154  0.60245839     1.26300
O2252       O  0.77829007  0.85621461  0.62796128    -0.67600
O2253       O  0.88542638  0.89163000  0.60661891    -0.79900
C2254       C  0.84612601  0.89086938  0.54598431     0.83600
O2255       O  0.86466729  0.90922077  0.56419205    -0.67000
Ni2256     Ni  0.86775896  0.91152605  0.66944334     1.27400
Ni2257     Ni  0.80566924  0.89907268  0.63668510     1.26100
H2258       H  0.82997344  0.93288585  0.59859857     0.38100
O2259       O  0.88149076  0.81522975  0.45415426    -0.81800
O2260       O  0.89580341  0.78697719  0.33055719    -0.66500
O2261       O  0.91415608  0.81988562  0.40466379    -1.13100
C2262       C  0.89784399  0.89878923  0.37520825     1.05100
O2263       O  0.91153386  0.83169706  0.30884075    -0.79700
O2264       O  0.95012689  0.87460949  0.34635978    -0.67300
Ni2265     Ni  0.90081411  0.79430199  0.43648616     1.34900
C2266       C  0.96106590  0.88514861  0.37039631     0.83800
O2267       O  0.91844148  0.77371177  0.37525343    -0.80300
O2268       O  0.91867399  0.77081668  0.42191715    -0.90500
C2269       C  0.90334681  0.80319491  0.30865018     0.83400
O2270       O  0.86156479  0.76389495  0.42265258    -0.68700
O2271       O  0.90871807  0.89480421  0.35259455    -0.88000
C2272       C  0.84903555  0.75600865  0.39878822     0.84200
C2273       C  0.92300662  0.76296998  0.39767408     1.05800
H2274       H  0.86856419  0.82159246  0.36061046     0.37600
O2275       O  0.89077214  0.83218856  0.36295108    -1.10700
O2276       O  0.94372893  0.87984949  0.39174915    -0.67300
Ni2277     Ni  0.90092210  0.84916904  0.40002758     1.26300
O2278       O  0.86235508  0.77041494  0.37661505    -0.67600
O2279       O  0.88823170  0.87909921  0.39461175    -0.79900
C2280       C  0.89086928  0.84395483  0.45647401     0.83600
O2281       O  0.90854022  0.86259760  0.43807319    -0.67000
Ni2282     Ni  0.90943460  0.86116173  0.33331969     1.27400
Ni2283     Ni  0.90430192  0.80244837  0.36821734     1.26100
H2284       H  0.93647288  0.83085780  0.40592410     0.38100
O2285       O  0.66985149  0.54541985  0.45140902    -0.81800
O2286       O  0.70299572  0.58954905  0.32944716    -0.66500
O2287       O  0.67004049  0.57760418  0.40306532    -1.13100
C2288       C  0.58505822  0.98784781  0.36930887     1.05100
O2289       O  0.65744681  0.56963405  0.30782130    -0.79700
O2290       O  0.61725099  0.56809185  0.34621584    -0.67300
Ni2291     Ni  0.69559167  0.58546222  0.43492248     1.34900
C2292       C  0.60574689  0.56705809  0.37007144     0.83800
O2293       O  0.72162626  0.62477734  0.37504927    -0.80300
O2294       O  0.72384664  0.62627916  0.42183306    -0.90500
C2295       C  0.68685445  0.58513200  0.30778029     0.83400
O2296       O  0.72188016  0.57132687  0.42025877    -0.68700
O2297       O  0.58975007  0.00432380  0.34785529    -0.88000
C2298       C  0.72763066  0.56564046  0.39583942     0.84200
C2299       C  0.73419775  0.63815609  0.39803076     1.05800
H2300       H  0.66111499  0.52895683  0.35595411     0.37600
O2301       O  0.65351809  0.54302761  0.35953228    -1.10700
O2302       O  0.60915775  0.55249365  0.39013900    -0.67300
Ni2303     Ni  0.63712263  0.53650682  0.39640779     1.26300
O2304       O  0.71392522  0.56725522  0.37423391    -0.67600
O2305       O  0.60472564  0.99564405  0.38866475    -0.79900
C2306       C  0.64053158  0.52907338  0.45281889     0.83600
O2307       O  0.62333185  0.52999067  0.43405466    -0.67000
Ni2308     Ni  0.62561997  0.53812081  0.33030707     1.27400
Ni2309     Ni  0.68758278  0.58405530  0.36670004     1.26100
H2310       H  0.66152527  0.59110019  0.40507138     0.38100
O2311       O  0.61012269  0.92985089  0.54804938    -0.81800
O2312       O  0.59388339  0.88648232  0.67087752    -0.66500
O2313       O  0.57642873  0.89909310  0.59653246    -1.13100
C2314       C  0.58745854  0.99261687  0.62976680     1.05100
O2315       O  0.56822692  0.90706213  0.69125646    -0.79700
O2316       O  0.53393495  0.91615812  0.65379928    -0.67300
Ni2317     Ni  0.59477344  0.89009000  0.56548544     1.34900
C2318       C  0.52448323  0.91490939  0.62913573     0.83800
O2319       O  0.57483053  0.85012739  0.62559632    -0.80300
O2320       O  0.58091526  0.84925552  0.57931970    -0.90500
C2321       C  0.58201822  0.89157936  0.69217781     0.83400
O2322       O  0.63476670  0.90452188  0.58109980    -0.68700
O2323       O  0.57714420  0.97786641  0.65236842    -0.88000
C2324       C  0.64496660  0.90945161  0.60586139     0.84200
C2325       C  0.57426989  0.83614347  0.60298852     1.05800
H2326       H  0.61702402  0.94705353  0.64322936     0.37600
O2327       O  0.59507841  0.93404792  0.63987956    -1.10700
O2328       O  0.54291561  0.92623192  0.60852858    -0.67300
Ni2329     Ni  0.58651117  0.94085377  0.60270666     1.26300
O2330       O  0.62823819  0.90616315  0.62697502    -0.67600
O2331       O  0.59635208  0.98248214  0.60957430    -0.79900
C2332       C  0.59813507  0.94698494  0.54638618     0.83600
O2333       O  0.58012933  0.94702214  0.56495774    -0.67000
Ni2334     Ni  0.57373715  0.94153411  0.66943235     1.27400
Ni2335     Ni  0.58525765  0.89206981  0.63337861     1.26100
H2336       H  0.55433005  0.88633264  0.59391931     0.38100
O2337       O  0.56226750  0.66654341  0.54594429    -0.81800
O2338       O  0.59854766  0.69685802  0.67163520    -0.66500
O2339       O  0.58869810  0.66438494  0.59781028    -1.13100
C2340       C  0.99220124  0.58527119  0.62833245     1.05100
O2341       O  0.57522455  0.65120656  0.69262396    -0.79700
O2342       O  0.56710242  0.60649701  0.65602597    -0.67300
Ni2343     Ni  0.60029316  0.69140088  0.56645634     1.34900
C2344       C  0.56835014  0.59676948  0.63184112     0.83800
O2345       O  0.63672991  0.71125140  0.62899212    -0.80300
O2346       O  0.63983705  0.71920459  0.58295712    -0.90500
C2347       C  0.59212793  0.68047040  0.69318102     0.83400
O2348       O  0.58401727  0.71649309  0.57958399    -0.68700
O2349       O  0.50601223  0.58957791  0.65062176    -0.88000
C2350       C  0.57909901  0.72362644  0.60377030     0.84200
C2351       C  0.65148722  0.72553035  0.60735850     1.05800
H2352       H  0.53924111  0.66044276  0.64151826     0.37600
O2353       O  0.55161667  0.65067934  0.63930857    -1.10700
O2354       O  0.55798356  0.60356211  0.61043236    -0.67300
Ni2355     Ni  0.54612858  0.63424572  0.60236626     1.26300
O2356       O  0.58237936  0.71152423  0.62564317    -0.67600
O2357       O  0.50363172  0.60460589  0.60760718    -0.79900
C2358       C  0.54334980  0.63758744  0.54519441     0.83600
O2359       O  0.54123610  0.62015278  0.56492773    -0.67000
Ni2360     Ni  0.54175626  0.62222666  0.66926269     1.27400
Ni2361     Ni  0.59422176  0.68139189  0.63451427     1.26100
H2362       H  0.60070475  0.65415372  0.59647302     0.38100
O2363       O  0.93895690  0.60904040  0.45301274    -0.81800
O2364       O  0.90058648  0.59786749  0.32796140    -0.66500
O2365       O  0.90944593  0.57765358  0.40276218    -1.13100
C2366       C  0.50421011  0.58974802  0.36932829     1.05100
O2367       O  0.91417274  0.56497514  0.31160072    -0.79700
O2368       O  0.92935430  0.53379987  0.34626888    -0.67300
Ni2369     Ni  0.89982999  0.59512208  0.43407524     1.34900
C2370       C  0.92571982  0.52432703  0.37107646     0.83800
O2371       O  0.86244048  0.57891134  0.37222845    -0.80300
O2372       O  0.85944454  0.58224241  0.41877764    -0.90500
C2373       C  0.90389302  0.58322061  0.30774232     0.83400
O2374       O  0.91545373  0.63580957  0.41989718    -0.68700
O2375       O  0.98989232  0.58081654  0.34657085    -0.88000
C2376       C  0.92145348  0.64728324  0.39564724     0.84200
C2377       C  0.84765211  0.57744722  0.39440867     1.05800
H2378       H  0.95906359  0.61767923  0.35761019     0.37600
O2379       O  0.94529168  0.59583247  0.36057315    -1.10700
O2380       O  0.93521455  0.54266266  0.39196885    -0.67300
Ni2381     Ni  0.95107536  0.58646328  0.39768167     1.26300
O2382       O  0.91922957  0.63136539  0.37397600    -0.67600
O2383       O  0.99259418  0.59510216  0.39128958    -0.79900
C2384       C  0.95567561  0.59651957  0.45473133     0.83600
O2385       O  0.95623003  0.57934135  0.43547218    -0.67000
Ni2386     Ni  0.95158616  0.57394952  0.33073531     1.27400
Ni2387     Ni  0.90404659  0.58807108  0.36588517     1.26100
H2388       H  0.89604080  0.55555663  0.40441865     0.38100
O2389       O  0.84371292  0.90475242  0.81060507    -0.81800
O2390       O  0.87356290  0.90526842  0.93985948    -0.66500
O2391       O  0.84347803  0.88475351  0.86506981    -1.13100
C2392       C  0.77124933  0.91373445  0.89856856     1.05100
O2393       O  0.82644958  0.87680893  0.95645411    -0.79700
O2394       O  0.77566624  0.85193422  0.92390018    -0.67300
Ni2395     Ni  0.87283161  0.90332239  0.83554076     1.34900
C2396       C  0.76866881  0.84080305  0.89943675     0.83800
O2397       O  0.88957063  0.88275579  0.89713130    -0.80300
O2398       O  0.90610798  0.90296127  0.85519429    -0.90500
C2399       C  0.85560798  0.88886739  0.95914316     0.83400
O2400       O  0.88545646  0.94403758  0.84859172    -0.68700
O2401       O  0.77679252  0.90697400  0.92262493    -0.88000
C2402       C  0.89681780  0.95538823  0.87237433     0.84200
C2403       C  0.90929692  0.89170162  0.87765474     1.05800
H2404       H  0.84065978  0.93067214  0.90851324     0.37600
O2405       O  0.83010004  0.90840748  0.90666636    -1.10700
O2406       O  0.78195098  0.85631892  0.87778697    -0.67300
Ni2407     Ni  0.81361477  0.89815491  0.86990419     1.26300
O2408       O  0.89119091  0.93826804  0.89362969    -0.67600
O2409       O  0.78464293  0.91210476  0.87641031    -0.79900
C2410       C  0.81508148  0.89604255  0.81033981     0.83600
O2411       O  0.79865598  0.88876998  0.83223240    -0.67000
Ni2412     Ni  0.80288444  0.89256759  0.93788299     1.27400
Ni2413     Ni  0.85992790  0.89577544  0.90217239     1.26100
H2414       H  0.83312922  0.86253384  0.86283577     0.38100
O2415       O  0.92680453  0.83458887  0.19373812    -0.81800
O2416       O  0.92044747  0.86418661  0.06662067    -0.66500
O2417       O  0.90202650  0.83585822  0.14152344    -1.13100
C2418       C  0.92300306  0.75822595  0.10689064     1.05100
O2419       O  0.89070408  0.81699574  0.04959845    -0.79700
O2420       O  0.86584449  0.76575230  0.08126775    -0.67300
Ni2421     Ni  0.92411354  0.86450357  0.17089509     1.34900
C2422       C  0.85332642  0.76088633  0.10511723     0.83800
O2423       O  0.90179690  0.88277858  0.11065500    -0.80300
O2424       O  0.92321534  0.89830247  0.15273333    -0.90500
C2425       C  0.90256499  0.84618870  0.04791916     0.83400
O2426       O  0.96348430  0.87562012  0.15580043    -0.68700
O2427       O  0.92050782  0.76657833  0.08242716    -0.88000
C2428       C  0.97365361  0.88595729  0.13172354     0.84200
C2429       C  0.91179018  0.90228934  0.13057481     1.05800
H2430       H  0.94467164  0.82916211  0.09820634     0.37600
O2431       O  0.92243869  0.81974427  0.09942107    -1.10700
O2432       O  0.86797546  0.77518334  0.12701661    -0.67300
Ni2433     Ni  0.91081042  0.80307450  0.13589174     1.26300
O2434       O  0.95552400  0.88102836  0.11134782    -0.67600
O2435       O  0.92018183  0.77085716  0.12906076    -0.79900
C2436       C  0.91211936  0.80524153  0.19475448     0.83600
O2437       O  0.89989255  0.78837012  0.17334201    -0.67000
Ni2438     Ni  0.90641690  0.79306421  0.06761881     1.27400
Ni2439     Ni  0.91221387  0.85139079  0.10441275     1.26100
H2440       H  0.88012368  0.82754075  0.14454500     0.38100
O2441       O  0.66047882  0.58031823  0.19017250    -0.81800
O2442       O  0.63236498  0.53339031  0.06708450    -0.66500
O2443       O  0.65986725  0.54795728  0.14217687    -1.13100
C2444       C  0.73877844  0.64504730  0.10740542     1.05100
O2445       O  0.67977045  0.55287679  0.04994830    -0.79700
O2446       O  0.73003649  0.57927816  0.08278381    -0.67300
Ni2447     Ni  0.63190114  0.54202499  0.17171728     1.34900
C2448       C  0.73432818  0.57168160  0.10671682     0.83800
O2449       O  0.61329988  0.99935154  0.11218846    -0.80300
O2450       O  0.60067381  0.00294636  0.15641891    -0.90500
C2451       C  0.65074978  0.53432931  0.04841296     0.83400
O2452       O  0.61332139  0.56298442  0.15508057    -0.68700
O2453       O  0.73011731  0.63347718  0.08304214    -0.88000
C2454       C  0.60676950  0.56506119  0.13005878     0.84200
C2455       C  0.59611366  0.98818021  0.13344227     1.05800
H2456       H  0.66733417  0.59536311  0.09790696     0.37600
O2457       O  0.67667586  0.58259228  0.09952479    -1.10700
O2458       O  0.72029319  0.57290546  0.12845002    -0.67300
Ni2459     Ni  0.69316699  0.58895366  0.13633026     1.26300
O2460       O  0.61553361  0.55494256  0.10962059    -0.67600
O2461       O  0.72618333  0.63020500  0.12958071    -0.79900
C2462       C  0.68932756  0.59146460  0.19397272     0.83600
O2463       O  0.70697151  0.59337891  0.17408976    -0.67000
Ni2464     Ni  0.70353213  0.59265783  0.06821722     1.27400
Ni2465     Ni  0.64479272  0.54067353  0.10501831     1.26100
H2466       H  0.66809580  0.53448075  0.14569436     0.38100
O2467       O  0.57346356  0.90729476  0.81187832    -0.81800
O2468       O  0.59372303  0.95432073  0.93427061    -0.66500
O2469       O  0.60661863  0.94045695  0.85872365    -1.13100
C2470       C  0.58583168  0.84188919  0.89199013     1.05100
O2471       O  0.62030293  0.93342273  0.95111007    -0.79700
O2472       O  0.64401509  0.90669023  0.91769071    -0.67300
Ni2473     Ni  0.58395804  0.94599925  0.82979545     1.34900
C2474       C  0.65676652  0.91453867  0.89392315     0.83800
O2475       O  0.60807346  0.98910226  0.88915687    -0.80300
O2476       O  0.59253150  0.98550646  0.84482642    -0.90500
C2477       C  0.61036396  0.95235211  0.95301086     0.83400
O2478       O  0.54430885  0.92552697  0.84711399    -0.68700
O2479       O  0.58845469  0.85311097  0.91651116    -0.88000
C2480       C  0.53599122  0.92391120  0.87231649     0.84200
C2481       C  0.60222013  0.00029328  0.86784695     1.05800
H2482       H  0.56625297  0.89272390  0.90232905     0.37600
O2483       O  0.58849326  0.90540947  0.90095479    -1.10700
O2484       O  0.64225080  0.91480476  0.87222378    -0.67300
Ni2485     Ni  0.59887207  0.89930369  0.86402904     1.26300
O2486       O  0.55518937  0.93335451  0.89231414    -0.67600
O2487       O  0.58985312  0.85762089  0.87006887    -0.79900
C2488       C  0.59133541  0.89664955  0.80676255     0.83600
O2489       O  0.60801292  0.89513974  0.82584598    -0.67000
Ni2490     Ni  0.60381396  0.89394289  0.93205198     1.27400
Ni2491     Ni  0.59877467  0.94756978  0.89605785     1.26100
H2492       H  0.62837605  0.95400495  0.85494029     0.38100
O2493       O  0.57903093  0.65147797  0.80594245    -0.81800
O2494       O  0.54133465  0.61938305  0.93287675    -0.66500
O2495       O  0.55421691  0.64892624  0.85867197    -1.13100
C2496       C  0.65129502  0.72753774  0.89559261     1.05100
O2497       O  0.55825069  0.66603202  0.95129410    -0.79700
O2498       O  0.58369177  0.71766566  0.91919859    -0.67300
Ni2499     Ni  0.54883540  0.62013942  0.82970667     1.34900
C2500       C  0.57827711  0.72338116  0.89482249     0.83800
O2501       O  0.50595184  0.60138368  0.88809172    -0.80300
O2502       O  0.51593798  0.58478179  0.84839818    -0.90500
C2503       C  0.54146196  0.63668342  0.95233223     0.83400
O2504       O  0.57956465  0.61267920  0.84496672    -0.68700
O2505       O  0.63902803  0.71951353  0.91967213    -0.88000
C2506       C  0.57769756  0.60077733  0.86863720     0.84200
C2507       C  0.99755857  0.58147885  0.86947055     1.05800
H2508       H  0.60217257  0.65591682  0.90365476     0.37600
O2509       O  0.58920450  0.66501646  0.90179478    -1.10700
O2510       O  0.58066973  0.70982621  0.87318084    -0.67300
Ni2511     Ni  0.59582616  0.68190333  0.86537180     1.26300
O2512       O  0.56233053  0.60391754  0.88848536    -0.67600
O2513       O  0.63728349  0.71431510  0.87306071    -0.79900
C2514       C  0.59473487  0.68084175  0.80618298     0.83600
O2515       O  0.60133441  0.69699931  0.82827878    -0.67000
Ni2516     Ni  0.59806930  0.69159209  0.93356764     1.27400
Ni2517     Ni  0.54756582  0.63293269  0.89547732     1.26100
H2518       H  0.54064476  0.65707151  0.85521748     0.38100
O2519       O  0.92597801  0.57422058  0.19206430    -0.81800
O2520       O  0.95704344  0.57479032  0.06357230    -0.66500
O2521       O  0.94867182  0.59658252  0.13813740    -1.13100
C2522       C  0.84933039  0.57355801  0.10679144     1.05100
O2523       O  0.93839686  0.60261297  0.04534505    -0.79700
O2524       O  0.91868967  0.63222599  0.07963457    -0.67300
Ni2525     Ni  0.95913956  0.57888131  0.16840829     1.34900
C2526       C  0.92272228  0.64334848  0.10412646     0.83800
O2527       O  0.99554787  0.59568352  0.10562572    -0.80300
O2528       O  0.99450324  0.58170653  0.14969026    -0.90500
C2529       C  0.95578310  0.59083904  0.04400793     0.83400
O2530       O  0.93389438  0.53753564  0.15594642    -0.68700
O2531       O  0.86153861  0.58033180  0.08261087    -0.88000
C2532       C  0.93092873  0.52562662  0.13194543     0.84200
C2533       C  0.50762413  0.59012803  0.12533972     1.05800
H2534       H  0.89850737  0.55171329  0.09504607     0.37600
O2535       O  0.91119839  0.57392548  0.09683850    -1.10700
O2536       O  0.91807396  0.62715438  0.12576900    -0.67300
Ni2537     Ni  0.90595200  0.58488877  0.13378229     1.26300
O2538       O  0.93964215  0.54187989  0.10986389    -0.67600
O2539       O  0.86348990  0.57245537  0.12826264    -0.79900
C2540       C  0.90805807  0.58529590  0.19270182     0.83600
O2541       O  0.90139702  0.59522110  0.17125701    -0.67000
Ni2542     Ni  0.90070809  0.59080289  0.06592730     1.27400
Ni2543     Ni  0.95330847  0.58473999  0.10110614     1.26100
H2544       H  0.96127158  0.61881201  0.13984398     0.38100
C2545       C  0.51989051  0.62254121  0.97578240    -0.07100
C2546       C  0.98873751  0.60596319  0.97079555    -0.18200
C2547       C  0.96694004  0.59430967  0.99235315     0.10100
C2548       C  0.97717413  0.59868901  0.02025356    -0.07000
C2549       C  0.50856062  0.61373285  0.02515449    -0.18200
C2550       C  0.53023733  0.62544842  0.00350979     0.10200
S2551       S  0.92651816  0.57433613  0.98293882    -0.33200
S2552       S  0.57069465  0.64412828  0.01259808    -0.33200
H2553       H  0.58039365  0.63617990  0.98790296     0.28200
H2554       H  0.91614702  0.55462819  0.00604253     0.28200
H2555       H  0.98074822  0.60299270  0.94943969     0.18800
H2556       H  0.51669914  0.61685836  0.04646628     0.18800
C2557       C  0.57191149  0.74923715  0.89126010    -0.07100
C2558       C  0.58322441  0.76747977  0.86727944    -0.18200
C2559       C  0.58705679  0.79722271  0.86625678     0.10100
C2560       C  0.57840988  0.80902970  0.88947545    -0.07000
C2561       C  0.56379959  0.78920687  0.91207848    -0.18200
C2562       C  0.56008240  0.75953884  0.91303611     0.10200
S2563       S  0.60596868  0.81962623  0.83581855    -0.33200
S2564       S  0.53984811  0.73591489  0.94255641    -0.33200
H2565       H  0.52769390  0.70760274  0.92797190     0.28200
H2566       H  0.62937739  0.84413543  0.85140262     0.28200
H2567       H  0.59169536  0.75970472  0.85001098     0.18800
H2568       H  0.55562155  0.79705447  0.92952935     0.18800
C2569       C  0.60431204  0.53102013  0.87018060    -0.07100
C2570       C  0.59386510  0.53824797  0.89478491    -0.18200
C2571       C  0.58801791  0.56291994  0.89608194     0.10100
C2572       C  0.59139249  0.58028868  0.87178950    -0.07000
C2573       C  0.60501947  0.57494472  0.84818485    -0.18200
C2574       C  0.61187412  0.55103510  0.84728114     0.10200
S2575       S  0.57551802  0.57005359  0.92917367    -0.33200
S2576       S  0.62979889  0.54702209  0.81605269    -0.33200
H2577       H  0.64587418  0.03431083  0.82960875     0.28200
H2578       H  0.59464893  0.60239176  0.92764445     0.28200
H2579       H  0.58870278  0.52362543  0.91282039     0.18800
H2580       H  0.60939033  0.58872322  0.82968155     0.18800
C2581       C  0.61980114  0.97354153  0.97724461    -0.07100
C2582       C  0.61459079  0.96107981  0.00405829    -0.18200
C2583       C  0.62433020  0.98028823  0.02771018     0.10100
C2584       C  0.63873548  0.51275824  0.02455351    -0.07000
C2585       C  0.64398044  0.52519376  0.99780128    -0.18200
C2586       C  0.63520527  0.00601988  0.97421222     0.10200
S2587       S  0.61947693  0.96211199  0.06097204    -0.33200
S2588       S  0.64677970  0.52487665  0.94095839    -0.33200
H2589       H  0.65394849  0.00330451  0.92914549     0.28200
H2590       H  0.64718242  0.98582307  0.07262006     0.28200
H2591       H  0.60349413  0.93623910  0.00655735     0.18800
H2592       H  0.65587472  0.55008124  0.99530089     0.18800
C2593       C  0.58648318  0.57823548  0.12485450    -0.07100
C2594       C  0.56565109  0.56667060  0.10238181    -0.18200
C2595       C  0.54081014  0.57212216  0.10066762     0.10100
C2596       C  0.53684118  0.58988015  0.12169443    -0.07000
C2597       C  0.55945045  0.60399128  0.14243837    -0.18200
C2598       C  0.58447085  0.59897148  0.14390690     0.10200
S2599       S  0.51329604  0.55296352  0.07296785    -0.33200
S2600       S  0.61273492  0.61956100  0.17080097    -0.33200
H2601       H  0.63802410  0.62246660  0.15528233     0.28200
H2602       H  0.48755836  0.53994324  0.09081039     0.28200
H2603       H  0.56714899  0.55120286  0.08728973     0.18800
H2604       H  0.55708551  0.61836769  0.15818793     0.18800
C2605       C  0.75897967  0.56377642  0.10948882    -0.07100
C2606       C  0.77786537  0.57441542  0.13324938    -0.18200
C2607       C  0.80700787  0.57688030  0.13349818     0.10100
C2608       C  0.81726341  0.56751602  0.10973033    -0.07000
C2609       C  0.79698108  0.55403237  0.08710052    -0.18200
C2610       C  0.76792667  0.55167151  0.08686469     0.10200
S2611       S  0.83108684  0.59557677  0.16345194    -0.33200
S2612       S  0.74363885  0.53347766  0.05685423    -0.33200
H2613       H  0.71551293  0.52214101  0.07139117     0.28200
H2614       H  0.85666642  0.61660433  0.14757631     0.28200
H2615       H  0.77126624  0.58368364  0.15078218     0.18800
H2616       H  0.80408241  0.54584124  0.06911878     0.18800
C2617       C  0.00773727  0.90652335  0.12853775    -0.07100
C2618       C  0.52548719  0.91224430  0.15179093    -0.18200
C2619       C  0.55593935  0.93678658  0.15308996     0.10100
C2620       C  0.56804600  0.95747070  0.13068187    -0.07000
C2621       C  0.55077929  0.95053640  0.10601522    -0.18200
C2622       C  0.52054763  0.92543149  0.10434671     0.10200
S2623       S  0.57783182  0.94084544  0.18415700    -0.33200
S2624       S  0.00283204  0.91686178  0.07106547    -0.33200
H2625       H  0.99053249  0.88465307  0.07221554     0.28200
H2626       H  0.60684604  0.95495366  0.17085108     0.28200
H2627       H  0.51612853  0.89772780  0.16992858     0.18800
H2628       H  0.56027395  0.96573470  0.08829641     0.18800
C2629       C  0.82084663  0.73537934  0.10782157    -0.07100
C2630       C  0.81265981  0.71720503  0.13185216    -0.18200
C2631       C  0.78576112  0.68814611  0.13283217     0.10100
C2632       C  0.76556595  0.67712810  0.10953091    -0.07000
C2633       C  0.77253978  0.69665655  0.08647338    -0.18200
C2634       C  0.79960663  0.72555722  0.08545588     0.10200
S2635       S  0.78069438  0.66542378  0.16335528    -0.33200
S2636       S  0.80559162  0.74870829  0.05500850    -0.33200
H2637       H  0.82180794  0.77730245  0.06914718     0.28200
H2638       H  0.77784493  0.63995045  0.14804119     0.28200
H2639       H  0.82858353  0.72447653  0.14926255     0.18800
H2640       H  0.75702919  0.68915620  0.06874461     0.18800
C2641       C  0.91125530  0.93148047  0.12835681    -0.07100
C2642       C  0.90282884  0.94214677  0.15203470    -0.18200
C2643       C  0.90622310  0.97170691  0.15313764     0.10100
C2644       C  0.91915736  0.99167524  0.12997738    -0.07000
C2645       C  0.92495484  0.97979473  0.10542253    -0.18200
C2646       C  0.92147384  0.95021445  0.10445049     0.10200
S2647       S  0.89357417  0.98291400  0.18431123    -0.33200
S2648       S  0.93330491  0.93909296  0.07299522    -0.33200
H2649       H  0.95080300  0.92852124  0.08695626     0.28200
H2650       H  0.88787074  0.45742512  0.20072143     0.28200
H2651       H  0.89406431  0.92729877  0.17000913     0.18800
H2652       H  0.93435261  0.99435694  0.08732489     0.18800
C2653       C  0.93034517  0.67597776  0.10772185    -0.07100
C2654       C  0.91774773  0.68329551  0.13076915    -0.18200
C2655       C  0.91611500  0.71039256  0.13170297     0.10100
C2656       C  0.92819954  0.73154990  0.10935713    -0.07000
C2657       C  0.94354709  0.72559510  0.08764158    -0.18200
C2658       C  0.94519990  0.69844380  0.08682811     0.10200
S2659       S  0.89519198  0.71444020  0.16058423    -0.33200
S2660       S  0.96677502  0.69398334  0.05873925    -0.33200
H2661       H  0.97620418  0.67636282  0.07413296     0.28200
H2662       H  0.87493750  0.71864203  0.14338594     0.28200
H2663       H  0.90666616  0.66659550  0.14721389     0.18800
H2664       H  0.95394871  0.74200146  0.07087090     0.18800
C2665       C  0.68310932  0.75454805  0.89391108    -0.07100
C2666       C  0.70487208  0.75862561  0.91438494    -0.18200
C2667       C  0.73415129  0.78542386  0.91542104     0.10100
C2668       C  0.74188460  0.80913037  0.89583684    -0.07000
C2669       C  0.72086750  0.80420219  0.87440577    -0.18200
C2670       C  0.69157198  0.77764274  0.87349881     0.10200
S2671       S  0.76056725  0.78792343  0.94213200    -0.33200
S2672       S  0.66491498  0.77662812  0.84782836    -0.33200
H2673       H  0.64090796  0.76816320  0.86721137     0.28200
H2674       H  0.78761115  0.80631555  0.92665022     0.28200
H2675       H  0.69889219  0.74094530  0.92991094     0.18800
H2676       H  0.72625459  0.82235009  0.85950822     0.18800
C2677       C  0.91895933  0.98951387  0.87431776    -0.07100
C2678       C  0.92523773  0.50675075  0.84973318    -0.18200
C2679       C  0.94926984  0.53740519  0.84819517     0.10100
C2680       C  0.96808064  0.55180216  0.87170290    -0.07000
C2681       C  0.96065474  0.53569483  0.89689337    -0.18200
C2682       C  0.93636168  0.50491109  0.89857476     0.10200
S2683       S  0.95507166  0.55663719  0.81529448    -0.33200
S2684       S  0.93005030  0.98687830  0.93204768    -0.33200
H2685       H  0.89797591  0.97573899  0.93182110     0.28200
H2686       H  0.96620756  0.58634766  0.82686787     0.28200
H2687       H  0.91203935  0.99610540  0.83096970     0.18800
H2688       H  0.97483513  0.54666900  0.91513042     0.18800
C2689       C  0.74632559  0.92170168  0.89598307    -0.07100
C2690       C  0.73016611  0.91518734  0.87064490    -0.18200
C2691       C  0.70247344  0.91569724  0.86841508     0.10100
C2692       C  0.68974015  0.92214424  0.89219731    -0.07000
C2693       C  0.70747806  0.93152716  0.91680341    -0.18200
C2694       C  0.73562464  0.93191838  0.91883046     0.10200
S2695       S  0.68347894  0.90524859  0.83520868    -0.33200
S2696       S  0.75634623  0.94543193  0.95130503    -0.33200
H2697       H  0.78585226  0.95986381  0.93888294     0.28200
H2698       H  0.68155919  0.93233441  0.83396079     0.28200
H2699       H  0.73821079  0.90798071  0.85264289     0.18800
H2700       H  0.69887428  0.93774886  0.93505555     0.18800
C2701       C  0.93835167  0.89131161  0.88112341    -0.07100
C2702       C  0.95859333  0.90910415  0.90260525    -0.18200
C2703       C  0.98997000  0.91759629  0.90184830     0.10100
C2704       C  0.50236484  0.91063971  0.87801156    -0.07000
C2705       C  0.98041056  0.88845988  0.85865410    -0.18200
C2706       C  0.94906036  0.87941241  0.85988488     0.10200
S2707       S  0.01405356  0.94198264  0.92978520    -0.33200
S2708       S  0.92390067  0.85363245  0.83305658    -0.33200
H2709       H  0.89671431  0.84109148  0.84915664     0.28200
H2710       H  0.52517068  0.92749247  0.93641316     0.28200
H2711       H  0.95043421  0.91823040  0.91906707     0.18800
H2712       H  0.98842381  0.88028549  0.84131830     0.18800
C2713       C  0.86854747  0.88098433  0.98368937    -0.07100
C2714       C  0.89922920  0.88673998  0.98247894    -0.18200
C2715       C  0.91126555  0.87606165  0.00313787     0.10100
C2716       C  0.89222354  0.85887819  0.02555796    -0.07000
C2717       C  0.86216109  0.85407593  0.02742854    -0.18200
C2718       C  0.85043219  0.86553848  0.00737422     0.10200
S2719       S  0.95072736  0.88458636  0.99918932    -0.33200
S2720       S  0.81264009  0.86045975  0.01413860    -0.33200
H2721       H  0.82110016  0.89073217  0.00625233     0.28200
H2722       H  0.94803582  0.85982498  0.01487867     0.28200
H2723       H  0.91378700  0.89884087  0.96486834     0.18800
H2724       H  0.84783770  0.84177945  0.04512556     0.17600
C2725       C  0.89597255  0.58709062  0.22019413    -0.07100
C2726       C  0.91302400  0.61474843  0.23519976    -0.18200
C2727       C  0.91413884  0.61477612  0.26430701     0.10100
C2728       C  0.89631397  0.58681345  0.27886624    -0.07000
C2729       C  0.87613790  0.55991547  0.26376022    -0.18200
C2730       C  0.87581976  0.55980306  0.23460545     0.10200
S2731       S  0.94281775  0.65006791  0.28083438    -0.33200
S2732       S  0.85182409  0.52353982  0.21675670    -0.33200
H2733       H  0.85097624  0.53669709  0.19127959     0.28200
H2734       H  0.95367126  0.63612080  0.29939597     0.28200
H2735       H  0.92893308  0.63564036  0.22419752     0.18800
H2736       H  0.86243000  0.53830425  0.27464284     0.18800
C2737       C  0.60381334  0.69494928  0.72049991    -0.07100
C2738       C  0.58591203  0.70452487  0.73546730    -0.18200
C2739       C  0.58612121  0.70494515  0.76459876     0.10100
C2740       C  0.60462965  0.69560524  0.77891140    -0.07000
C2741       C  0.62559376  0.69019885  0.76384657    -0.18200
C2742       C  0.62547542  0.68995801  0.73474095     0.10200
S2743       S  0.55832213  0.71212072  0.78214039    -0.33200
S2744       S  0.65053677  0.67919785  0.71687139    -0.33200
H2745       H  0.65012585  0.69223151  0.69119275     0.28200
H2746       H  0.57583935  0.72426546  0.80656263     0.28200
H2747       H  0.56910717  0.70821708  0.72457884     0.18800
H2748       H  0.63980008  0.68293765  0.77470041     0.18800
C2749       C  0.52133014  0.62451973  0.52189682    -0.07100
C2750       C  0.98920245  0.61423048  0.52791234    -0.18200
C2751       C  0.96734181  0.60404399  0.50642608     0.10100
C2752       C  0.97687576  0.60414979  0.47866933    -0.07000
C2753       C  0.50893613  0.61418554  0.47274798    -0.18200
C2754       C  0.53082824  0.62426995  0.49424592     0.10200
S2755       S  0.92774729  0.59120077  0.51584567    -0.33200
S2756       S  0.57049943  0.63719281  0.48496146    -0.33200
H2757       H  0.57912261  0.63027772  0.51049610     0.28200
H2758       H  0.91443585  0.56847852  0.49478895     0.28200
H2759       H  0.98184491  0.61478058  0.54907651     0.18800
H2760       H  0.51651524  0.61466502  0.45148517     0.18800
C2761       C  0.58471803  0.88057534  0.71974197    -0.07100
C2762       C  0.61415137  0.89453487  0.73203186    -0.18200
C2763       C  0.61750182  0.89752104  0.76107118     0.10100
C2764       C  0.59080469  0.88529181  0.77810190    -0.07000
C2765       C  0.56161768  0.86722559  0.76564240    -0.18200
C2766       C  0.55834201  0.86466633  0.73672395     0.10200
S2767       S  0.65612487  0.92092012  0.77447163    -0.33200
S2768       S  0.51972927  0.84334474  0.72256118    -0.33200
H2769       H  0.52874707  0.83877435  0.69595583     0.28200
H2770       H  0.64881916  0.93819761  0.79308560     0.28200
H2771       H  0.63453742  0.90671386  0.71905359     0.18800
H2772       H  0.54096886  0.85714855  0.77846588     0.18800
C2773       C  0.56776938  0.80364107  0.60442263    -0.07100
C2774       C  0.57360110  0.79329232  0.62950918    -0.18200
C2775       C  0.57435445  0.76569686  0.63080280     0.10100
C2776       C  0.57067135  0.74834392  0.60606467    -0.07000
C2777       C  0.56186802  0.75722568  0.58164165    -0.18200
C2778       C  0.55956471  0.78394643  0.58072758     0.10200
S2779       S  0.58155340  0.75522554  0.66452425    -0.33200
S2780       S  0.54585833  0.79123967  0.54864371    -0.33200
H2781       H  0.52945576  0.80394680  0.56175604     0.28200
H2782       H  0.55594670  0.72499324  0.66294135     0.28200
H2783       H  0.57887415  0.80739763  0.64819602     0.18800
H2784       H  0.55721801  0.74352318  0.56276161     0.18800
C2785       C  0.58793345  0.52230769  0.62715375    -0.07100
C2786       C  0.59921039  0.54320950  0.64961953    -0.18200
C2787       C  0.59618161  0.56954502  0.65043833     0.10100
C2788       C  0.57999916  0.57462580  0.62884348    -0.07000
C2789       C  0.57103545  0.55502402  0.60528098    -0.18200
C2790       C  0.57469487  0.52901811  0.60423399     0.10200
S2791       S  0.61367127  0.59552021  0.67967056    -0.33200
S2792       S  0.55922641  0.50390156  0.57423724    -0.33200
H2793       H  0.54416556  0.97668108  0.58979675     0.28200
H2794       H  0.62341679  0.62251787  0.66403831     0.28200
H2795       H  0.61022914  0.53877196  0.66692022     0.18800
H2796       H  0.55906950  0.55861959  0.58827687     0.18800
C2797       C  0.70138165  0.60159363  0.22242311    -0.07100
C2798       C  0.71568904  0.58711673  0.23560187    -0.18200
C2799       C  0.71589946  0.58545460  0.26474827     0.10100
C2800       C  0.70139258  0.59838719  0.28082795    -0.07000
C2801       C  0.69135852  0.61668283  0.26767982    -0.18200
C2802       C  0.69134665  0.61855199  0.23872133     0.10200
S2803       S  0.73045849  0.56251521  0.27994259    -0.33200
S2804       S  0.67518210  0.64023158  0.22371560    -0.33200
H2805       H  0.69019549  0.64495744  0.19786394     0.28200
H2806       H  0.74217064  0.58109120  0.30397674     0.28200
H2807       H  0.72368697  0.57423202  0.22324954     0.18800
H2808       H  0.68051904  0.62700805  0.27990643     0.18800
C2809       C  0.62688403  0.50774258  0.47640025    -0.07100
C2810       C  0.63472310  0.52005818  0.50343650    -0.18200
C2811       C  0.62551671  0.00084476  0.52667558     0.10100
C2812       C  0.60702195  0.96848067  0.52296110    -0.07000
C2813       C  0.59873793  0.95614696  0.49601037    -0.18200
C2814       C  0.60891777  0.97532290  0.47273866     0.10200
S2815       S  0.63981593  0.51891734  0.56010827    -0.33200
S2816       S  0.60046394  0.95667430  0.43912427    -0.33200
H2817       H  0.62982019  0.97687960  0.42786744     0.28200
H2818       H  0.64374649  0.99510131  0.57097843     0.28200
H2819       H  0.64920561  0.54484096  0.50641906     0.18800
H2820       H  0.58521850  0.93127958  0.49303756     0.18800
C2821       C  0.58530453  0.58084265  0.37302149    -0.07100
C2822       C  0.57847021  0.59177934  0.34871419    -0.18200
C2823       C  0.55386586  0.59757544  0.34762733     0.10100
C2824       C  0.53489053  0.59182807  0.37127787    -0.07000
C2825       C  0.54389538  0.58464614  0.39650592    -0.18200
C2826       C  0.56923115  0.57980901  0.39778984     0.10200
S2827       S  0.54687628  0.61189815  0.31565696    -0.33200
S2828       S  0.57941513  0.57228340  0.43154040    -0.33200
H2829       H  0.61151884  0.59014333  0.42688993     0.28200
H2830       H  0.07498357  0.61877569  0.30272001     0.28200
H2831       H  0.59140308  0.59431474  0.32983982     0.18800
H2832       H  0.53037999  0.58151415  0.41516162     0.18800
C2833       C  0.81513213  0.57031266  0.39199483    -0.07100
C2834       C  0.79373803  0.55220950  0.41259110    -0.18200
C2835       C  0.76348175  0.54712462  0.41273109     0.10100
C2836       C  0.75435148  0.56087311  0.39213428    -0.07000
C2837       C  0.77492110  0.57687807  0.37037154    -0.18200
C2838       C  0.80517751  0.58219882  0.37031141     0.10200
S2839       S  0.73767330  0.52306753  0.43974476    -0.33200
S2840       S  0.83076825  0.60748902  0.34384379    -0.33200
H2841       H  0.85461637  0.62562047  0.36280488     0.28200
H2842       H  0.71031786  0.51325701  0.42439837     0.28200
H2843       H  0.80074969  0.54224497  0.42892605     0.18800
H2844       H  0.76844728  0.58797957  0.35466205     0.18800
C2845       C  0.90395367  0.78996002  0.28112595    -0.07100
C2846       C  0.93303633  0.80174513  0.26843934    -0.18200
C2847       C  0.93598311  0.80234602  0.23943593     0.10100
C2848       C  0.90940751  0.79166822  0.22254980    -0.07000
C2849       C  0.88010406  0.77605047  0.23515134    -0.18200
C2850       C  0.87714532  0.77488345  0.26431093     0.10200
S2851       S  0.97450888  0.82017454  0.22502470    -0.33200
S2852       S  0.83878374  0.75764614  0.27880848    -0.33200
H2853       H  0.84650536  0.74901113  0.30391967     0.28200
H2854       H  0.96533363  0.80545575  0.19883746     0.28200
H2855       H  0.95379253  0.81321405  0.28110918     0.18800
H2856       H  0.85951790  0.76760241  0.22241893     0.18800
C2857       C  0.89828525  0.92848785  0.37861089    -0.07100
C2858       C  0.88614314  0.93785069  0.35701822    -0.18200
C2859       C  0.89188342  0.96823847  0.35561819     0.10100
C2860       C  0.91153038  0.99049320  0.37557941    -0.07000
C2861       C  0.92111662  0.98037982  0.39861230    -0.18200
C2862       C  0.91488859  0.94982561  0.40024079     0.10200
S2863       S  0.87352205  0.97701299  0.32777859    -0.33200
S2864       S  0.93193310  0.94075662  0.42874418    -0.33200
H2865       H  0.94478564  0.92739104  0.41155377     0.28200
H2866       H  0.86997527  0.49913308  0.34310442     0.28200
H2867       H  0.87276538  0.92152684  0.34063330     0.18800
H2868       H  0.93574576  0.99690890  0.41436858     0.18800
C2869       C  0.93107078  0.73802117  0.39544780    -0.07100
C2870       C  0.92377959  0.72064777  0.37061318    -0.18200
C2871       C  0.92343503  0.69249872  0.36908001     0.10100
C2872       C  0.92969969  0.68039940  0.39314381    -0.07000
C2873       C  0.93997370  0.69929809  0.41715445    -0.18200
C2874       C  0.94132449  0.72796155  0.41843144     0.10200
S2875       S  0.91286232  0.67263233  0.33615177    -0.33200
S2876       S  0.95593737  0.75003457  0.45025109    -0.33200
H2877       H  0.97107489  0.77886102  0.43689888     0.28200
H2878       H  0.93934807  0.66960224  0.33586083     0.28200
H2879       H  0.91664221  0.72813698  0.35244861     0.18800
H2880       H  0.94620511  0.69129016  0.43554529     0.18800
C2881       C  0.55496802  0.95919015  0.37204659    -0.07100
C2882       C  0.54540423  0.93673412  0.35091626    -0.18200
C2883       C  0.51587965  0.91037679  0.35127771     0.10100
C2884       C  0.99500309  0.90677533  0.37307622    -0.07000
C2885       C  0.50545584  0.92820181  0.39501430    -0.18200
C2886       C  0.53502405  0.95437653  0.39471655     0.10200
S2887       S  0.50715274  0.88188504  0.32418010    -0.33200
S2888       S  0.54463488  0.98242641  0.42229541    -0.33200
H2889       H  0.55487668  0.00736092  0.40395469     0.28200
H2890       H  0.98921797  0.85638064  0.34138314     0.28200
H2891       H  0.56105992  0.93980902  0.33395096     0.18800
H2892       H  0.99036992  0.92522330  0.41259081     0.18800
C2893       C  0.81858302  0.72688628  0.39746901    -0.07100
C2894       C  0.81382583  0.70419132  0.41696508    -0.18200
C2895       C  0.78723308  0.67521671  0.41681133     0.10100
C2896       C  0.76336671  0.66842367  0.39746986    -0.07000
C2897       C  0.76812663  0.69064716  0.37736643    -0.18200
C2898       C  0.79541138  0.71979556  0.37718666     0.10200
S2899       S  0.78672500  0.64712706  0.44037284    -0.33200
S2900       S  0.79867487  0.74699949  0.35127981    -0.33200
H2901       H  0.81263678  0.77282788  0.36928938     0.28200
H2902       H  0.77706524  0.62394306  0.41975405     0.28200
H2903       H  0.83177009  0.70845598  0.43190161     0.18800
H2904       H  0.75026773  0.68553570  0.36208605     0.18800
C2905       C  0.79936949  0.89754336  0.72413562    -0.07100
C2906       C  0.80985157  0.92456638  0.74030087    -0.18200
C2907       C  0.81068385  0.92380851  0.76938640     0.10100
C2908       C  0.80174312  0.89563241  0.78285084    -0.07000
C2909       C  0.78817917  0.86813761  0.76700432    -0.18200
C2910       C  0.78628580  0.86877324  0.73782332     0.10200
S2911       S  0.82679080  0.96004810  0.78818575    -0.33200
S2912       S  0.77101912  0.83271346  0.71897412    -0.33200
H2913       H  0.75455457  0.84001186  0.69979051     0.28200
H2914       H  0.81137797  0.94714654  0.81335270     0.28200
H2915       H  0.81973282  0.94677571  0.73011415     0.18800
H2916       H  0.78136620  0.84637292  0.77711948     0.18800
C2917       C  0.68339288  0.75191514  0.61039413    -0.07100
C2918       C  0.70398917  0.75879759  0.58800358    -0.18200
C2919       C  0.73212100  0.78682804  0.58707065     0.10100
C2920       C  0.73991357  0.80838385  0.60912170    -0.07000
C2921       C  0.72112691  0.79994850  0.63289445    -0.18200
C2922       C  0.69273963  0.77241340  0.63357610     0.10200
S2923       S  0.75773992  0.79485661  0.55768422    -0.33200
S2924       S  0.66821720  0.76713537  0.66309984    -0.33200
H2925       H  0.64317551  0.76277553  0.64654295     0.28200
H2926       H  0.73855336  0.76768670  0.54241406     0.28200
H2927       H  0.69739366  0.74268880  0.57066528     0.18800
H2928       H  0.72712194  0.81620962  0.65006777     0.18800
C2929       C  0.91204784  0.99566052  0.62678521    -0.07100
C2930       C  0.93270803  0.50520554  0.60432230    -0.18200
C2931       C  0.95786483  0.53525935  0.60311916     0.10100
C2932       C  0.96238921  0.55654193  0.62466294    -0.07000
C2933       C  0.94020404  0.54791607  0.64579488    -0.18200
C2934       C  0.91480864  0.51777730  0.64699295     0.10200
S2935       S  0.98576865  0.54361568  0.57590215    -0.33200
S2936       S  0.88676836  0.00799912  0.67459285    -0.33200
H2937       H  0.90001193  0.03761889  0.68687478     0.28200
H2938       H  0.98273847  0.56818935  0.56586401     0.28200
H2939       H  0.93077272  0.98864748  0.58855542     0.18800
H2940       H  0.94364296  0.56451088  0.66206914     0.18800
C2941       C  0.73315676  0.91588093  0.61351648    -0.07100
C2942       C  0.72853636  0.93265590  0.59265779    -0.18200
C2943       C  0.70088290  0.93330204  0.59092795     0.10100
C2944       C  0.67719370  0.91674619  0.61048445    -0.07000
C2945       C  0.68312280  0.90288370  0.63307243    -0.18200
C2946       C  0.71055044  0.90190079  0.63464711     0.10200
S2947       S  0.69602181  0.95506936  0.56359395    -0.33200
S2948       S  0.71341987  0.87946258  0.66234906    -0.33200
H2949       H  0.71983231  0.86109870  0.64424972     0.28200
H2950       H  0.72596088  0.96784493  0.55230396     0.28200
H2951       H  0.74619041  0.94422493  0.57694870     0.18800
H2952       H  0.66516624  0.89032736  0.64835384     0.18800
C2953       C  0.93156520  0.89519279  0.62395910    -0.07100
C2954       C  0.94008926  0.88317298  0.64619802    -0.18200
C2955       C  0.96923084  0.88589487  0.64732704     0.10100
C2956       C  0.49079985  0.90229258  0.62478782    -0.07000
C2957       C  0.98134540  0.91103480  0.60238156    -0.18200
C2958       C  0.95192061  0.90787733  0.60109582     0.10200
S2959       S  0.97665243  0.86824484  0.67655378    -0.33200
S2960       S  0.94327973  0.92343272  0.57106474    -0.33200
H2961       H  0.93273382  0.94026845  0.58663056     0.28200
H2962       H  0.49459633  0.85896466  0.65924187     0.28200
H2963       H  0.92412874  0.87226307  0.66331461     0.18800
H2964       H  0.49729188  0.92349687  0.58444718     0.18800
C2965       C  0.85791499  0.88010913  0.52251388    -0.07100
C2966       C  0.84162348  0.84846138  0.51582038    -0.18200
C2967       C  0.85175776  0.83582094  0.49488997     0.10100
C2968       C  0.87940711  0.85541601  0.48000753    -0.07000
C2969       C  0.89585455  0.88710612  0.48706204    -0.18200
C2970       C  0.88520752  0.89969141  0.50761561     0.10200
S2971       S  0.82830265  0.79475869  0.48750484    -0.33200
S2972       S  0.90660567  0.94105017  0.51273742    -0.33200
H2973       H  0.88054155  0.94385843  0.51875429     0.28200
H2974       H  0.80460468  0.78792398  0.50693263     0.28200
H2975       H  0.82087964  0.83341842  0.52742673     0.18800
H2976       H  0.91713641  0.90236996  0.47628510     0.18800
loop_ 
_geom_bond_atom_site_label_1 
_geom_bond_atom_site_label_2 
_geom_bond_distance 
_geom_bond_site_symmetry_2 
_ccdc_geom_bond_type 
O1           Ni7   1.936       .  S
O1           C22   1.272       .  A
O2          Ni25   1.923       .  S
O2           C11   1.269       .  A
O3           Ni7   1.905       .  S
O3          Ni25   1.911       .  S
O3          Ni19   1.903       .  S
O3           H26   0.966       .  S
C4           O21   1.271       .  A
C4           O13   1.276       .  A
C4          C721   1.475       .  S
O5          Ni24   1.927       .  S
O5           C11   1.269       .  A
O6          Ni24   1.896       .  S
O6            C8   1.266       .  A
Ni7          O10   1.918       .  S
Ni7          O12   1.902       .  S
C8           O18   1.273       .  A
C8          C697   1.479       .  S
O9          Ni25   1.918       .  S
O9           C15   1.276       .  A
O10          C15   1.278       .  A
C11         C673   1.483       .  S
O12          C14   1.268       .  A
O13         Ni24   1.925       .  S
C14          O20   1.270       .  A
C14         C688   1.476       .  S
C15         C709   1.479       .  S
H16          O17   0.966       .  S
O17         Ni25   1.908       .  S
O17         Ni19   1.911       .  S
O17         Ni24   1.905       .  S
O18         Ni19   1.929       .  S
Ni19         O23   1.908       .  S
Ni19         O21   1.906       .  S
O20         Ni25   1.918       .  S
C22          O23   1.265       .  A
C22         C733   1.484       .  S
O27         Ni33   1.933       .  S
O27          C48   1.271       .  A
O28         Ni51   1.923       .  S
O28          C37   1.271       .  A
O29         Ni33   1.895       .  S
O29         Ni51   1.899       .  S
O29         Ni45   1.901       .  S
O29          H52   0.966       .  S
C30          O47   1.269       .  A
C30          O39   1.270       .  A
C30         C625   1.482       .  S
O31         Ni50   1.918       .  S
O31          C37   1.270       .  A
O32         Ni50   1.900       .  S
O32          C34   1.270       .  A
Ni33         O36   1.923       .  S
Ni33         O38   1.895       .  S
C34          O44   1.280       .  A
C34         C652   1.489       .  S
O35         Ni51   1.929       .  S
O35          C41   1.281       .  A
O36          C41   1.277       .  A
C37         C613   1.478       .  S
O38          C40   1.269       .  A
O39         Ni50   1.929       .  S
C40          O46   1.275       .  A
C40         C661   1.487       .  S
C41         C637   1.496       .  S
H42          O43   0.966       .  S
O43         Ni51   1.939       .  S
O43         Ni45   1.921       .  S
O43         Ni50   1.915       .  S
O44         Ni45   1.947       .  S
Ni45         O49   1.911       .  S
Ni45         O47   1.918       .  S
O46         Ni51   1.937       .  S
C48          O49   1.270       .  A
C48         C736   1.497       .  S
O53         Ni59   1.932       .  S
O53          C74   1.271       .  A
O54         Ni77   1.912       .  S
O54          C63   1.268       .  A
O55         Ni59   1.906       .  S
O55         Ni77   1.907       .  S
O55         Ni71   1.903       .  S
O55          H78   0.966       .  S
C56          O73   1.265       .  A
C56          O65   1.273       .  A
C56         C649   1.473       .  S
O57         Ni76   1.920       .  S
O57          C63   1.271       .  A
O58         Ni76   1.901       .  S
O58          C60   1.270       .  A
Ni59         O62   1.919       .  S
Ni59         O64   1.908       .  S
C60          O70   1.277       .  A
C60         C589   1.499       .  S
O61         Ni77   1.925       .  S
O61          C67   1.276       .  A
O62          C67   1.276       .  A
C63         C568   1.473       .  S
O64          C66   1.269       .  A
O65        Ni820   1.936       .  S
C66          O72   1.272       .  A
C66         C604   1.479       .  S
C67         C664   1.482       .  S
H68          O69   0.966       .  S
O69         Ni77   1.923       .  S
O69         Ni71   1.909       .  S
O69         Ni76   1.909       .  S
O70         Ni71   1.951       .  S
Ni71         O75   1.903       .  S
Ni71        O817   1.897   1_545  S
O72         Ni77   1.920       .  S
O73        Ni815   1.897       .  S
C74          O75   1.265       .  A
C74         C577   1.474       .  S
Ni76        O809   1.936       .  S
O79         Ni85   1.935       .  S
O79         C100   1.272       .  A
O80        Ni103   1.911       .  S
O80          C89   1.266       .  A
O81         Ni85   1.913       .  S
O81        Ni103   1.906       .  S
O81         Ni97   1.906       .  S
O81         H104   0.966       .  S
C82          O99   1.266       .  A
C82          O91   1.272       .  A
C82        C1297   1.480       .  S
O83        Ni102   1.926       .  S
O83          C89   1.271       .  A
O84        Ni102   1.895       .  S
O84          C86   1.268       .  A
Ni85         O88   1.924       .  S
Ni85         O90   1.905       .  S
C86          O96   1.276       .  A
C86         C724   1.486   1_455  S
O87        Ni103   1.919       .  S
O87          C93   1.277       .  A
O88          C93   1.276       .  A
C89         C529   1.472       .  S
O90          C92   1.269       .  A
O91        Ni102   1.932       .  S
C92          O98   1.269       .  A
C92         C712   1.477       .  S
C93         C541   1.490       .  S
H94          O95   0.966       .  S
O95        Ni103   1.923       .  S
O95         Ni97   1.912       .  S
O95        Ni102   1.917       .  S
O96         Ni97   1.936       .  S
Ni97        O101   1.898       .  S
Ni97         O99   1.905       .  S
O98        Ni103   1.916       .  S
C100        O101   1.264       .  A
C100        C580   1.472       .  S
O105       Ni111   1.935       .  S
O105        C126   1.271       .  A
O106       Ni129   1.907       .  S
O106        C115   1.265       .  A
O107       Ni111   1.917       .  S
O107       Ni129   1.909       .  S
O107       Ni123   1.903       .  S
O107        H130   0.966       .  S
C108       O1613   1.266       .  A
C108       O1605   1.272       .  A
C108        C700   1.470       .  S
O109       Ni128   1.926       .  S
O109        C115   1.270       .  A
O110       Ni128   1.898       .  S
O110        C112   1.267       .  A
Ni111       O114   1.921       .  S
Ni111       O116   1.907       .  S
C112        O122   1.278       .  A
C112        C556   1.492       .  S
O113       Ni129   1.905       .  S
O113        C119   1.271       .  A
O114        C119   1.276       .  A
C115        C505   1.468       .  S
O116        C118   1.270       .  A
O117       Ni128   1.926       .  S
O117       C1596   1.273   1_455  A
C118        O124   1.271       .  A
C118        C544   1.495       .  S
C119        C685   1.480       .  S
H120        O121   0.966       .  S
O121       Ni129   1.911       .  S
O121       Ni123   1.910       .  S
O121       Ni128   1.915       .  S
O122       Ni123   1.946       .  S
Ni123       O127   1.898       .  S
Ni123       O125   1.898       .  S
O124       Ni129   1.928       .  S
O125       C1596   1.266   1_455  A
C126        O127   1.264       .  A
C126        C517   1.472       .  S
O131       Ni137   1.942       .  S
O131        C152   1.275       .  A
O132       Ni155   1.923       .  S
O132        C141   1.269       .  A
O133       Ni137   1.909       .  S
O133       Ni155   1.911       .  S
O133       Ni149   1.911       .  S
O133        H156   0.966       .  S
C134       O1639   1.274   1_455  A
C134       O1631   1.276   1_455  A
C134        C592   1.489       .  S
O135       Ni154   1.925       .  S
O135        C141   1.267       .  A
O136       Ni154   1.899       .  S
O136        C138   1.266       .  A
Ni137       O140   1.929       .  S
Ni137       O142   1.910       .  S
C138        O148   1.273       .  A
C138       C1372   1.488   1_545  S
O139       Ni155   1.914       .  S
O139        C145   1.275       .  A
O140        C145   1.278       .  A
C141        C496   1.475       .  S
O142        C144   1.271       .  A
O143       Ni154   1.927       .  S
O143       C1622   1.276       .  A
C144        O150   1.274       .  A
C144        C640   1.499       .  S
C145        C601   1.482       .  S
H146        O147   0.966       .  S
O147       Ni155   1.911       .  S
O147       Ni149   1.908       .  S
O147       Ni154   1.913       .  S
O148       Ni149   1.936       .  S
Ni149       O153   1.896       .  S
Ni149       O151   1.915       .  S
O150       Ni155   1.936       .  S
O151       C1622   1.273       .  A
C152        O153   1.264       .  A
C152        C520   1.478       .  S
O157       Ni163   1.920       .  S
O157        C178   1.269       .  A
O158       Ni181   1.906       .  S
O158        C167   1.266       .  A
O159       Ni163   1.915       .  S
O159       Ni181   1.922       .  S
O159       Ni175   1.931       .  S
O159        H182   0.966       .  S
C160        O177   1.278       .  A
C160        O169   1.278       .  A
C160        C457   1.491       .  S
O161       Ni180   1.940       .  S
O161        C167   1.273       .  A
O162       Ni180   1.906       .  S
O162        C164   1.268       .  A
Ni163       O166   1.926       .  S
Ni163       O168   1.903       .  S
C164        O174   1.272       .  A
C164        C436   1.483       .  S
O165       Ni181   1.907       .  S
O165        C171   1.266       .  A
O166        C171   1.270       .  A
C167        C481   1.493       .  S
O168        C170   1.272       .  A
O169       Ni180   1.929       .  S
C170        O176   1.276       .  A
C170        C445   1.496       .  S
C171        C469   1.472       .  S
H172        O173   0.966       .  S
O173       Ni181   1.901       .  S
O173       Ni175   1.906       .  S
O173       Ni180   1.911       .  S
O174       Ni175   1.926       .  S
Ni175       O179   1.921       .  S
Ni175       O177   1.921       .  S
O176       Ni181   1.946       .  S
C178        O179   1.269       .  A
C178        C676   1.477       .  S
O183       Ni189   1.924       .  S
O183        C204   1.270       .  A
O184       Ni207   1.904       .  S
O184        C193   1.264       .  A
O185       Ni189   1.909       .  S
O185       Ni207   1.914       .  S
O185       Ni201   1.913       .  S
O185        H208   0.966       .  S
C186        O203   1.274       .  A
C186        O195   1.279       .  A
C186        C424   1.485       .  S
O187       Ni206   1.941       .  S
O187        C193   1.273       .  A
O188       Ni206   1.906       .  S
O188        C190   1.269       .  A
Ni189       O192   1.931       .  S
Ni189       O194   1.897       .  S
C190        O200   1.272       .  A
C190        C397   1.484       .  S
O191       Ni207   1.906       .  S
O191        C197   1.269       .  A
O192        C197   1.275       .  A
C193        C484   1.473       .  S
O194        C196   1.268       .  A
O195       Ni206   1.927       .  S
C196        O202   1.273       .  A
C196        C385   1.491       .  S
C197        C409   1.479       .  S
H198        O199   0.966       .  S
O199       Ni207   1.904       .  S
O199       Ni201   1.907       .  S
O199       Ni206   1.911       .  S
O200       Ni201   1.924       .  S
Ni201       O205   1.920       .  S
Ni201       O203   1.912       .  S
O202       Ni207   1.941       .  S
C204        O205   1.269       .  A
C204        C616   1.478       .  S
O209       Ni215   1.928       .  S
O209        C230   1.271       .  A
O210       Ni233   1.901       .  S
O210        C219   1.265       .  A
O211       Ni215   1.906       .  S
O211       Ni233   1.903       .  S
O211       Ni227   1.905       .  S
O211        H234   0.966       .  S
C212        O229   1.274       .  A
C212        O221   1.277       .  A
C212        C400   1.489       .  S
O213       Ni232   1.934       .  S
O213        C219   1.271       .  A
O214       Ni232   1.899       .  S
O214        C216   1.268       .  A
Ni215       O220   1.898       .  S
Ni215       O962   1.929       .  S
C216        O226   1.272       .  A
C216        C373   1.476       .  S
O217       Ni977   1.898       .  S
O217        C223   1.269       .  A
O218       Ni959   1.929       .  S
O218        C223   1.276       .  A
C219        C352   1.473       .  S
O220        C222   1.267       .  A
O221       Ni232   1.920       .  S
C222        O228   1.273       .  A
C222        C361   1.486       .  S
C223        C388   1.474       .  S
H224        O225   0.966       .  S
O225       Ni233   1.911       .  S
O225       Ni227   1.912       .  S
O225       Ni232   1.908       .  S
O226       Ni227   1.922       .  S
Ni227       O231   1.915       .  S
Ni227       O229   1.916       .  S
O228       Ni233   1.935       .  S
C230        O231   1.268       .  A
C230        C565   1.474       .  S
Ni233       O961   1.898   1_545  S
O235       Ni241   1.925       .  S
O235        C256   1.270       .  A
O236       Ni259   1.905       .  S
O236        C245   1.267       .  A
O237       Ni241   1.908       .  S
O237       Ni259   1.904       .  S
O237       Ni253   1.913       .  S
O237        H260   0.966       .  S
C238        O255   1.275       .  A
C238        O247   1.278       .  A
C238        C328   1.498       .  S
O239       Ni258   1.938       .  S
O239        C245   1.274       .  A
O240       Ni258   1.906       .  S
O240        C242   1.271       .  A
Ni241       O244   1.931       .  S
Ni241       O246   1.904       .  S
C242        O252   1.277       .  A
C242        C460   1.495       .  S
O243       Ni259   1.915       .  S
O243        C249   1.274       .  A
O244        C249   1.277       .  A
C245        C349   1.480       .  S
O246        C248   1.269       .  A
O247       Ni258   1.928       .  S
C248        O254   1.270       .  A
C248        C472   1.491       .  S
C249       C1081   1.485       .  S
H250        O251   0.966       .  S
O251       Ni259   1.918       .  S
O251       Ni253   1.910       .  S
O251       Ni258   1.904       .  S
O252       Ni253   1.939       .  S
Ni253       O257   1.924       .  S
Ni253       O255   1.923       .  S
O254       Ni259   1.932       .  S
C256        O257   1.270       .  A
C256        C532   1.480       .  S
O261       Ni267   1.920       .  S
O261        C282   1.270       .  A
O262       Ni285   1.895       .  S
O262        C271   1.264       .  A
O263       Ni267   1.911       .  S
O263       Ni285   1.907       .  S
O263       Ni279   1.921       .  S
O263        H286   0.966       .  S
C264        O281   1.275       .  A
C264        O273   1.277       .  A
C264        C433   1.486       .  S
O265       Ni284   1.942       .  S
O265        C271   1.274       .  A
O266       Ni284   1.912       .  S
O266        C268   1.271       .  A
Ni267       O270   1.933       .  S
Ni267       O272   1.904       .  S
C268        O278   1.274       .  A
C268        C325   1.492       .  S
O269       Ni285   1.908       .  S
O269       C1763   1.268   1_455  A
O270       C1763   1.273   1_455  A
C271        C313   1.474       .  S
O272        C274   1.270       .  A
O273       Ni284   1.928       .  S
C274        O280   1.277       .  A
C274        C340   1.499       .  S
C275       O1757   1.268       .  A
C275       O1758   1.272       .  A
C275        C448   1.477       .  S
H276        O277   0.966       .  S
O277       Ni285   1.909       .  S
O277       Ni279   1.906       .  S
O277       Ni284   1.914       .  S
O278       Ni279   1.929       .  S
Ni279       O283   1.909       .  S
Ni279       O281   1.917       .  S
O280       Ni285   1.952       .  S
C282        O283   1.267       .  A
C282        C508   1.469       .  S
O287       Ni293   1.922       .  S
O287        C308   1.268       .  A
O288       Ni311   1.900       .  S
O288        C297   1.266       .  A
O289       Ni293   1.915       .  S
O289       Ni311   1.918       .  S
O289       Ni305   1.919       .  S
O289        H312   0.966       .  S
C290        O307   1.273       .  A
C290        O299   1.277       .  A
C290        C376   1.480       .  S
O291       Ni310   1.935       .  S
O291        C297   1.272       .  A
O292       Ni310   1.907       .  S
O292        C294   1.268       .  A
Ni293       O296   1.919       .  S
Ni293       O298   1.892       .  S
C294        O304   1.271       .  A
C294        C421   1.482       .  S
O295       Ni311   1.908       .  S
O295       C1789   1.267       .  A
O296       C1789   1.271       .  A
C297        C316   1.476       .  S
O298        C300   1.266       .  A
O299       Ni310   1.924       .  S
C300        O306   1.279       .  A
C300       C1156   1.492   1_545  S
C301       O1783   1.267   1_455  A
C301       O1784   1.270   1_455  A
C301        C364   1.475       .  S
H302        O303   0.966       .  S
O303       Ni311   1.901       .  S
O303       Ni305   1.905       .  S
O303       Ni310   1.914       .  S
O304       Ni305   1.922       .  S
Ni305       O309   1.911       .  S
Ni305       O307   1.909       .  S
O306       Ni311   1.944       .  S
C308        O309   1.265       .  A
C308        C493   1.470       .  S
C313        C318   1.411   1_556  A
C313       C1802   1.404   1_455  A
C314        C315   1.400       .  A
C314       C1801   1.403       .  A
C314        H323   1.084       .  S
C315        C316   1.413   1_556  A
C315        S319   1.803       .  S
C316       C1805   1.405       .  A
C317        C318   1.400       .  A
C317       C1804   1.404   1_455  A
C317        H324   1.084       .  S
C318        S320   1.803       .  S
S319        H322   1.406   1_556  S
S320        H321   1.406   1_554  S
C325        C326   1.406       .  A
C325        C330   1.414       .  A
C326        C327   1.403       .  A
C326        H335   1.083       .  S
C327        C328   1.421       .  A
C327        S331   1.801       .  S
C328        C329   1.409       .  A
C329        C330   1.401       .  A
C329        H336   1.084       .  S
C330        S332   1.803       .  S
S331        H334   1.405       .  S
S332        H333   1.408       .  S
C337        C993   1.485   1_545  S
C337        C338   1.404       .  A
C337        C342   1.412       .  A
C338        C339   1.403       .  A
C338        H347   1.084       .  S
C339        C340   1.421       .  A
C339        S343   1.802       .  S
C340        C341   1.410       .  A
C341        C342   1.399       .  A
C341        H348   1.083       .  S
C342        S344   1.804       .  S
S343        H346   1.408       .  S
S344       H1089   1.407       .  S
H345       S1088   1.407       .  S
C349        C350   1.404   1_556  A
C349        C354   1.415       .  A
C350        C351   1.401       .  A
C350        H359   1.084       .  S
C351       C1096   1.414       .  A
C351        S355   1.802       .  S
C352        C353   1.400   1_554  A
C352       C1095   1.414   1_545  A
C353       C1098   1.399       .  A
C353        H360   1.084       .  S
C354       C1097   1.399       .  A
C354       S1100   1.799       .  S
S355        H358   1.406       .  S
S356       C1098   1.799       .  S
S356       H1101   1.407       .  S
H357       S1100   1.407       .  S
C361        C362   1.407       .  A
C361        C366   1.417       .  A
C362        C363   1.402       .  A
C362        H371   1.084       .  S
C363        C364   1.415       .  A
C363        S367   1.801       .  S
C364        C365   1.400       .  A
C365        C366   1.396       .  A
C365        H372   1.084       .  S
C366        S368   1.803       .  S
S367        H370   1.403   1_455  S
S368        H369   1.408       .  S
C373        C374   1.404       .  A
C373        C378   1.413       .  A
C374        C375   1.398       .  A
C374        H383   1.084       .  S
C375        C376   1.417       .  A
C375        S379   1.803       .  S
C376        C377   1.405       .  A
C377        C378   1.396       .  A
C377        H384   1.084       .  S
C378        S380   1.805       .  S
S379        H382   1.406       .  S
S380        H381   1.408       .  S
C385       C1874   1.410       .  A
C385       C1878   1.419       .  A
C386        C387   1.395       .  A
C386       C1873   1.410       .  A
C386        H395   1.083       .  S
C387        C388   1.409       .  A
C387        S391   1.804       .  S
C388        C389   1.403       .  A
C389        C390   1.399       .  A
C389        H396   1.084       .  S
C390       C1873   1.420       .  A
C390       S1880   1.802       .  S
S391        H394   1.407       .  S
S392       C1878   1.802       .  S
S392        H393   1.408       .  S
C397        C398   1.405       .  A
C397        C402   1.414       .  A
C398        C399   1.399       .  A
C398        H407   1.084       .  S
C399        C400   1.419       .  A
C399        S403   1.803       .  S
C400        C401   1.408       .  A
C401        C402   1.399       .  A
C401        H408   1.084       .  S
C402        S404   1.804       .  S
S403        H406   1.408       .  S
S404        H405   1.408       .  S
C409        C410   1.401       .  A
C409        C414   1.413       .  A
C410        C411   1.401       .  A
C410        H419   1.083       .  S
C411        C412   1.422       .  A
C411        S415   1.812       .  S
C412       C1044   1.492       .  S
C412        C413   1.407       .  A
C413        C414   1.400       .  A
C413        H420   1.083       .  S
C414        S416   1.801       .  S
S415       H1162   1.407       .  S
S416        H417   1.405       .  S
H418       S1159   1.407       .  S
C421        C422   1.404       .  A
C421        C426   1.413       .  A
C422        C423   1.396       .  A
C422        H431   1.083       .  S
C423        C424   1.418       .  A
C423        S427   1.804       .  S
C424        C425   1.407       .  A
C425        C426   1.401       .  A
C425        H432   1.084       .  S
C426        S428   1.803       .  S
S427        H430   1.407       .  S
S428        H429   1.408       .  S
C433        C434   1.406       .  A
C433        C438   1.417       .  A
C434        C435   1.402       .  A
C434        H443   1.084       .  S
C435        C436   1.414       .  A
C435        S439   1.804       .  S
C436        C437   1.404       .  A
C437        C438   1.399       .  A
C437        H444   1.084       .  S
C438        S440   1.803       .  S
S439        H442   1.407       .  S
S440        H441   1.405       .  S
C445       C1190   1.409       .  A
C445       C1194   1.423       .  A
C446        C447   1.395       .  A
C446       C1189   1.409   1_545  A
C446       H1199   1.083   1_545  S
C447        C448   1.410       .  A
C447        S451   1.805       .  S
C448        C449   1.402       .  A
C449        C450   1.404       .  A
C449        H456   1.084       .  S
C450       C1189   1.423   1_545  A
C450       S1196   1.802   1_545  S
S451        H454   1.407       .  S
S452       C1194   1.802       .  S
S452        H453   1.408       .  S
H455       C1190   1.083       .  S
C457        C458   1.405       .  A
C457        C462   1.417       .  A
C458        C459   1.401       .  A
C458        H467   1.084       .  S
C459        C460   1.416       .  A
C459        S463   1.793       .  S
C460        C461   1.408       .  A
C461        C462   1.401       .  A
C461        H468   1.084       .  S
C462        S464   1.803       .  S
S463        H466   1.407       .  S
S464        H465   1.408       .  S
C469        C470   1.403       .  A
C469        C474   1.408       .  A
C470        C471   1.403       .  A
C470        H479   1.084       .  S
C471       C1960   1.420       .  A
C471        S475   1.800       .  S
C472       C1959   1.421   1_455  A
C472       C1961   1.408   1_455  A
C473        C474   1.397       .  A
C473       C1960   1.407       .  A
C473        H480   1.084       .  S
C474        S476   1.803       .  S
S475       H1966   1.407       .  S
S476        H477   1.407       .  S
H478       S1963   1.408       .  S
C481        C482   1.411       .  A
C481        C486   1.419   1_556  A
C482        C483   1.404   1_556  A
C482        H491   1.084       .  S
C483        C484   1.410       .  A
C483        S487   1.804   1_554  S
C484        C485   1.399       .  A
C485        C486   1.399       .  A
C485        H492   1.084       .  S
C486        S488   1.803       .  S
S487        H490   1.405   1_556  S
S488        H489   1.408       .  S
C493        C494   1.399       .  A
C493        C498   1.410       .  A
C494        C495   1.400       .  A
C494        H503   1.084       .  S
C495        C496   1.414       .  A
C495        S499   1.800       .  S
C496        C497   1.405       .  A
C497        C498   1.401       .  A
C497        H504   1.084       .  S
C498        S500   1.803       .  S
S499        H502   1.406       .  S
S500        H501   1.407       .  S
C505        C506   1.401       .  A
C505        C510   1.410       .  A
C506        C507   1.400       .  A
C506        H515   1.084       .  S
C507        C508   1.412       .  A
C507        S511   1.803       .  S
C508        C509   1.403       .  A
C509        C510   1.399       .  A
C509        H516   1.084       .  S
C510        S512   1.803       .  S
S511        H514   1.404       .  S
S512        H513   1.407       .  S
C517        C522   1.411       .  A
C517       C2006   1.403   1_455  A
C518        C519   1.399       .  A
C518       C2005   1.403       .  A
C518        H527   1.084       .  S
C519        C520   1.412       .  A
C519        S523   1.803       .  S
C520       C2009   1.406       .  A
C521        C522   1.401       .  A
C521       C2008   1.406   1_455  A
C521        H528   1.084       .  S
C522        S524   1.804       .  S
S523        H526   1.406       .  S
S524        H525   1.405       .  S
C529        C530   1.402       .  A
C529        C534   1.409       .  A
C530        C531   1.404       .  A
C530        H539   1.084       .  S
C531        C532   1.416       .  A
C531        S535   1.798       .  S
C532        C533   1.405       .  A
C533        C534   1.397       .  A
C533        H540   1.084       .  S
C534        S536   1.803       .  S
S535        H538   1.405       .  S
S536        H537   1.407       .  S
C541        C542   1.405       .  A
C541        C546   1.416       .  A
C542        C543   1.401       .  A
C542        H551   1.084       .  S
C543        C544   1.420       .  A
C543        S547   1.801       .  S
C544        C545   1.408       .  A
C545        C546   1.399       .  A
C545        H552   1.084       .  S
C546        S548   1.804       .  S
S547        H550   1.408       .  S
S548        H549   1.408       .  S
C553        C826   1.480   1_545  S
C553        C554   1.401       .  A
C553        C558   1.415       .  A
C554        C555   1.400       .  A
C554        H563   1.084       .  S
C555        C556   1.420       .  A
C555        S559   1.804       .  S
C556        C557   1.407       .  A
C557        C558   1.401       .  A
C557        H564   1.084       .  S
C558        S560   1.801       .  S
S559        H562   1.408       .  S
S560       H1305   1.403   1_545  S
H561       S1304   1.403       .  S
C565        C566   1.404       .  A
C565        C570   1.411       .  A
C566        C567   1.405       .  A
C566        H575   1.084       .  S
C567        C568   1.413       .  A
C567        S571   1.801       .  S
C568        C569   1.402       .  A
C569        C570   1.396       .  A
C569        H576   1.084       .  S
C570        S572   1.803       .  S
S571        H574   1.405       .  S
S572        H573   1.407       .  S
C577        C578   1.401       .  A
C577       C1326   1.414   1_545  A
C578       C1323   1.398       .  A
C578        H587   1.084       .  S
C579        C580   1.414       .  A
C579       C1322   1.398       .  A
C579       S1327   1.800       .  S
C580        C581   1.400       .  A
C581        C582   1.399       .  A
C581        H588   1.084       .  S
C582       C1321   1.414       .  A
C582        S584   1.798       .  S
S583       C1323   1.800       .  S
S583       H1330   1.406   1_545  S
S584        H585   1.407       .  S
H586       S1327   1.406       .  S
C589        C590   1.409       .  A
C589        C594   1.420       .  A
C590        C591   1.400       .  A
C590        H599   1.082       .  S
C591        C592   1.413       .  A
C591        S595   1.810       .  S
C592        C593   1.407       .  A
C593        C594   1.405       .  A
C593        H600   1.084       .  S
C594        S596   1.802       .  S
S595       H2086   1.407       .  S
S596        H597   1.408       .  S
H598       S2083   1.407       .  S
C601        C602   1.407       .  A
C601        C606   1.415       .  A
C602        C603   1.401       .  A
C602        H611   1.084       .  S
C603        C604   1.412       .  A
C603        S607   1.803       .  S
C604        C605   1.404       .  A
C605        C606   1.397       .  A
C605        H612   1.084       .  S
C606        S608   1.802       .  S
S607        H610   1.407       .  S
S608        H609   1.407       .  S
C613        C614   1.403       .  A
C613        C618   1.413       .  A
C614        C615   1.399       .  A
C614        H623   1.084       .  S
C615        C616   1.412       .  A
C615        S619   1.804       .  S
C616        C617   1.404       .  A
C617        C618   1.406       .  A
C617        H624   1.084       .  S
C618        S620   1.800       .  S
S619        H622   1.407       .  S
S620        H621   1.405       .  S
C625        C626   1.403       .  A
C625        C630   1.415       .  A
C626        C627   1.401       .  A
C626        H635   1.084       .  S
C627        C628   1.417       .  A
C627        S631   1.804       .  S
C628        C882   1.488       .  S
C628        C629   1.404       .  A
C629        C630   1.401       .  A
C629        H636   1.084       .  S
C630        S632   1.795       .  S
S631       H1378   1.408       .  S
S632        H633   1.397       .  S
H634       S1375   1.408       .  S
C637        C638   1.405       .  A
C637        C642   1.419       .  A
C638        C639   1.401       .  A
C638        H647   1.084       .  S
C639        C640   1.419       .  A
C639        S643   1.794       .  S
C640        C641   1.408       .  A
C641        C642   1.402       .  A
C641        H648   1.084       .  S
C642        S644   1.803       .  S
S643        H646   1.406       .  S
S644        H645   1.408       .  S
C649        C650   1.400       .  A
C649        C654   1.412       .  A
C650        C651   1.400       .  A
C650        H659   1.084       .  S
C651       C2140   1.420   1_455  A
C651        S655   1.804       .  S
C652       C2139   1.420       .  A
C652       C2141   1.406       .  A
C653        C654   1.398       .  A
C653       C2140   1.406   1_455  A
C653       H2148   1.082   1_455  S
C654        S656   1.800       .  S
S655       H2146   1.408   1_455  S
S656        H657   1.404       .  S
H658       S2143   1.408       .  S
H660       C2141   1.082       .  S
C661        C662   1.405       .  A
C661        C666   1.417       .  A
C662        C663   1.389       .  A
C662        H671   1.084       .  S
C663        C664   1.413       .  A
C663        S667   1.804       .  S
C664        C665   1.408       .  A
C665        C666   1.409       .  A
C665        H672   1.084       .  S
C666        S668   1.800       .  S
S667        H670   1.405       .  S
S668        H669   1.407       .  S
C673        C674   1.404       .  A
C673        C678   1.414       .  A
C674        C675   1.400       .  A
C674        H683   1.084       .  S
C675        C676   1.410       .  A
C675        S679   1.803       .  S
C676        C677   1.404       .  A
C677        C678   1.406       .  A
C677        H684   1.084       .  S
C678        S680   1.800       .  S
S679        H682   1.407       .  S
S680        H681   1.406       .  S
C685        C686   1.406       .  A
C685        C690   1.417       .  A
C686        C687   1.400       .  A
C686        H695   1.083       .  S
C687        C688   1.411       .  A
C687        S691   1.809       .  S
C688        C689   1.402       .  A
C689        C690   1.395       .  A
C689        H696   1.084       .  S
C690        S692   1.802       .  S
S691        H694   1.407       .  S
S692        H693   1.407       .  S
C697       C1442   1.403       .  A
C697       C1446   1.416       .  A
C698        C699   1.394       .  A
C698       C1441   1.403   1_545  A
C698       H1451   1.083   1_545  S
C699        C700   1.411       .  A
C699        S703   1.799       .  S
C700        C701   1.401       .  A
C701        C702   1.401       .  A
C701        H708   1.083       .  S
C702       C1441   1.416   1_545  A
C702       S1448   1.810       .  S
S703        H706   1.402       .  S
S704       C1446   1.810       .  S
S704        H705   1.407       .  S
H707       C1442   1.083       .  S
C709        C710   1.406       .  A
C709        C714   1.415       .  A
C710        C711   1.401       .  A
C710        H719   1.083       .  S
C711        C712   1.411       .  A
C711        S715   1.808       .  S
C712        C713   1.404       .  A
C713        C714   1.397       .  A
C713        H720   1.084       .  S
C714        S716   1.803       .  S
S715        H718   1.407       .  S
S716        H717   1.406       .  S
C721        C722   1.400       .  A
C721        C726   1.414       .  A
C722        C723   1.394       .  A
C722        H731   1.084       .  S
C723       C2212   1.418       .  A
C723        S727   1.804       .  S
C724       C2211   1.418       .  A
C724       C2213   1.407       .  A
C725        C726   1.400       .  A
C725       C2212   1.407       .  A
C725       H2220   1.083       .  S
C726        S728   1.801       .  S
S727       H2218   1.408       .  S
S728        H729   1.404       .  S
H730       S2215   1.408       .  S
H732       C2213   1.083       .  S
C733        C734   1.402       .  A
C733        C738   1.412       .  A
C734        C735   1.403       .  A
C734        H743   1.082       .  S
C735        C736   1.423       .  A
C735        S739   1.812       .  S
C736        C737   1.408       .  A
C737        C738   1.403       .  A
C737        H744   1.081       .  S
C738        S740   1.803       .  S
S739        H742   1.407       .  S
S740        H741   1.407       .  S
O745       Ni751   1.936       .  S
O745        C766   1.272       .  A
O746       Ni769   1.923       .  S
O746        C755   1.269       .  A
O747       Ni751   1.905       .  S
O747       Ni769   1.911       .  S
O747       Ni763   1.903       .  S
O747        H770   0.966       .  S
C748        O765   1.271       .  A
C748        O757   1.276       .  A
C748       C1465   1.474       .  S
O749       Ni768   1.927       .  S
O749        C755   1.270       .  A
O750       Ni768   1.896       .  S
O750        C752   1.266       .  A
Ni751       O754   1.918       .  S
Ni751       O756   1.903       .  S
C752        O762   1.273       .  A
C752       C1441   1.479       .  S
O753       Ni769   1.918       .  S
O753        C759   1.276       .  A
O754        C759   1.278       .  A
C755       C1417   1.482       .  S
O756        C758   1.268       .  A
O757       Ni768   1.925       .  S
C758        O764   1.270       .  A
C758       C1432   1.476       .  S
C759       C1453   1.479       .  S
H760        O761   0.966       .  S
O761       Ni769   1.908       .  S
O761       Ni763   1.911       .  S
O761       Ni768   1.905       .  S
O762       Ni763   1.929       .  S
Ni763       O767   1.907       .  S
Ni763       O765   1.906       .  S
O764       Ni769   1.918       .  S
C766        O767   1.265       .  A
C766       C1477   1.484       .  S
O771       Ni777   1.933       .  S
O771        C792   1.271       .  A
O772       Ni795   1.923       .  S
O772        C781   1.271       .  A
O773       Ni777   1.895       .  S
O773       Ni795   1.899       .  S
O773       Ni789   1.901       .  S
O773        H796   0.966       .  S
C774        O791   1.269       .  A
C774        O783   1.270       .  A
C774       C1369   1.482       .  S
O775       Ni794   1.918       .  S
O775        C781   1.270       .  A
O776       Ni794   1.900       .  S
O776        C778   1.270       .  A
Ni777       O780   1.923       .  S
Ni777       O782   1.895       .  S
C778        O788   1.280       .  A
C778       C1396   1.488       .  S
O779       Ni795   1.929       .  S
O779        C785   1.281       .  A
O780        C785   1.277       .  A
C781       C1357   1.478       .  S
O782        C784   1.269       .  A
O783       Ni794   1.929       .  S
C784        O790   1.275       .  A
C784       C1405   1.487       .  S
C785       C1381   1.495       .  S
H786        O787   0.966       .  S
O787       Ni795   1.940       .  S
O787       Ni789   1.921       .  S
O787       Ni794   1.916       .  S
O788       Ni789   1.947       .  S
Ni789       O793   1.911       .  S
Ni789       O791   1.918       .  S
O790       Ni795   1.937       .  S
C792        O793   1.270       .  A
C792       C1480   1.497       .  S
O797       Ni803   1.932       .  S
O797        C818   1.271       .  A
O798       Ni821   1.912       .  S
O798        C807   1.268       .  A
O799       Ni803   1.907       .  S
O799       Ni821   1.907       .  S
O799       Ni815   1.903       .  S
O799        H822   0.966       .  S
C800        O817   1.265       .  A
C800        O809   1.273   1_565  A
C800       C1393   1.473       .  S
O801       Ni820   1.920       .  S
O801        C807   1.271       .  A
O802       Ni820   1.901       .  S
O802        C804   1.270       .  A
Ni803       O806   1.919       .  S
Ni803       O808   1.908       .  S
C804        O814   1.277       .  A
C804       C1333   1.499       .  S
O805       Ni821   1.925       .  S
O805        C811   1.276       .  A
O806        C811   1.276       .  A
C807       C1312   1.474       .  S
O808        C810   1.269       .  A
C810        O816   1.272       .  A
C810       C1348   1.479       .  S
C811       C1408   1.483       .  S
H812        O813   0.966       .  S
O813       Ni821   1.923       .  S
O813       Ni815   1.909       .  S
O813       Ni820   1.909       .  S
O814       Ni815   1.951       .  S
Ni815       O819   1.903       .  S
O816       Ni821   1.920       .  S
C818        O819   1.265       .  A
C818       C1321   1.474       .  S
O823       Ni829   1.935       .  S
O823        C844   1.272       .  A
O824       Ni847   1.910       .  S
O824        C833   1.266       .  A
O825       Ni829   1.913       .  S
O825       Ni847   1.905       .  S
O825       Ni841   1.905       .  S
O825        H848   0.966       .  S
C826        O843   1.266       .  A
C826        O835   1.272       .  A
O827       Ni846   1.926       .  S
O827        C833   1.271       .  A
O828       Ni846   1.895       .  S
O828        C830   1.268       .  A
Ni829       O832   1.924       .  S
Ni829       O834   1.905       .  S
C830        O840   1.276       .  A
C830       C1468   1.486   1_455  S
O831       Ni847   1.919       .  S
O831        C837   1.277       .  A
O832        C837   1.276       .  A
C833       C1273   1.473       .  S
O834        C836   1.269       .  A
O835       Ni846   1.932       .  S
C836        O842   1.269       .  A
C836       C1456   1.477       .  S
C837       C1285   1.490       .  S
H838        O839   0.966       .  S
O839       Ni847   1.923       .  S
O839       Ni841   1.912       .  S
O839       Ni846   1.916       .  S
O840       Ni841   1.936       .  S
Ni841       O845   1.899       .  S
Ni841       O843   1.905       .  S
O842       Ni847   1.916       .  S
C844        O845   1.264       .  A
C844       C1324   1.472       .  S
O849       Ni855   1.935       .  S
O849        C870   1.271       .  A
O850       Ni873   1.907       .  S
O850        C859   1.265       .  A
O851       Ni855   1.917       .  S
O851       Ni873   1.909       .  S
O851       Ni867   1.903       .  S
O851        H874   0.966       .  S
C852       O2357   1.266       .  A
C852       O2349   1.272       .  A
C852       C1444   1.470       .  S
O853       Ni872   1.925       .  S
O853        C859   1.270       .  A
O854       Ni872   1.898       .  S
O854        C856   1.267       .  A
Ni855       O858   1.921       .  S
Ni855       O860   1.907       .  S
C856        O866   1.278       .  A
C856       C1300   1.492       .  S
O857       Ni873   1.905       .  S
O857        C863   1.271       .  A
O858        C863   1.276       .  A
C859       C1249   1.467       .  S
O860        C862   1.270       .  A
O861       Ni872   1.926       .  S
O861       C2340   1.273   1_455  A
C862        O868   1.271       .  A
C862       C1288   1.495       .  S
C863       C1429   1.480       .  S
H864        O865   0.966       .  S
O865       Ni873   1.911       .  S
O865       Ni867   1.910       .  S
O865       Ni872   1.915       .  S
O866       Ni867   1.946       .  S
Ni867       O871   1.898       .  S
Ni867       O869   1.898       .  S
O868       Ni873   1.928       .  S
O869       C2340   1.266   1_455  A
C870        O871   1.264       .  A
C870       C1261   1.472       .  S
O875       Ni881   1.942       .  S
O875        C896   1.275       .  A
O876       Ni899   1.923       .  S
O876        C885   1.269       .  A
O877       Ni881   1.909       .  S
O877       Ni899   1.911       .  S
O877       Ni893   1.911       .  S
O877        H900   0.966       .  S
C878       O2383   1.274   1_455  A
C878       O2375   1.276   1_455  A
C878       C1336   1.489       .  S
O879       Ni898   1.925       .  S
O879        C885   1.267       .  A
O880       Ni898   1.899       .  S
O880        C882   1.266       .  A
Ni881       O884   1.929       .  S
Ni881       O886   1.910       .  S
C882        O892   1.273       .  A
O883       Ni899   1.914       .  S
O883        C889   1.275       .  A
O884        C889   1.278       .  A
C885       C1240   1.476       .  S
O886        C888   1.271       .  A
O887       Ni898   1.927       .  S
O887       C2366   1.276       .  A
C888        O894   1.274       .  A
C888       C1384   1.499       .  S
C889       C1345   1.482       .  S
H890        O891   0.966       .  S
O891       Ni899   1.911       .  S
O891       Ni893   1.908       .  S
O891       Ni898   1.913       .  S
O892       Ni893   1.936       .  S
Ni893       O897   1.896       .  S
Ni893       O895   1.915       .  S
O894       Ni899   1.936       .  S
O895       C2366   1.273       .  A
C896        O897   1.264       .  A
C896       C1264   1.478       .  S
O901       Ni907   1.920       .  S
O901        C922   1.269       .  A
O902       Ni925   1.905       .  S
O902        C911   1.266       .  A
O903       Ni907   1.916       .  S
O903       Ni925   1.921       .  S
O903       Ni919   1.931       .  S
O903        H926   0.966       .  S
C904        O921   1.278       .  A
C904        O913   1.278       .  A
C904       C1201   1.491       .  S
O905       Ni924   1.940       .  S
O905        C911   1.273       .  A
O906       Ni924   1.906       .  S
O906        C908   1.268       .  A
Ni907       O910   1.926       .  S
Ni907       O912   1.903       .  S
C908        O918   1.272       .  A
C908       C1180   1.483       .  S
O909       Ni925   1.907       .  S
O909        C915   1.266       .  A
O910        C915   1.270       .  A
C911       C1225   1.492       .  S
O912        C914   1.272       .  A
O913       Ni924   1.929       .  S
C914        O920   1.276       .  A
C914       C1189   1.496       .  S
C915       C1213   1.473       .  S
H916        O917   0.966       .  S
O917       Ni925   1.901       .  S
O917       Ni919   1.906       .  S
O917       Ni924   1.911       .  S
O918       Ni919   1.926       .  S
Ni919       O923   1.921       .  S
Ni919       O921   1.920       .  S
O920       Ni925   1.946       .  S
C922        O923   1.269       .  A
C922       C1420   1.477       .  S
O927       Ni933   1.924       .  S
O927        C948   1.270       .  A
O928       Ni951   1.904       .  S
O928        C937   1.264       .  A
O929       Ni933   1.909       .  S
O929       Ni951   1.914       .  S
O929       Ni945   1.914       .  S
O929        H952   0.966       .  S
C930        O947   1.274       .  A
C930        O939   1.278       .  A
C930       C1168   1.485       .  S
O931       Ni950   1.941       .  S
O931        C937   1.273       .  A
O932       Ni950   1.906       .  S
O932        C934   1.269       .  A
Ni933       O936   1.931       .  S
Ni933       O938   1.897       .  S
C934        O944   1.272       .  A
C934       C1141   1.484       .  S
O935       Ni951   1.907       .  S
O935        C941   1.269       .  A
O936        C941   1.275       .  A
C937       C1228   1.473       .  S
O938        C940   1.268       .  A
O939       Ni950   1.927       .  S
C940        O946   1.273       .  A
C940       C1129   1.491       .  S
C941       C1153   1.480       .  S
H942        O943   0.966       .  S
O943       Ni951   1.905       .  S
O943       Ni945   1.907       .  S
O943       Ni950   1.912       .  S
O944       Ni945   1.924       .  S
Ni945       O949   1.921       .  S
Ni945       O947   1.912       .  S
O946       Ni951   1.941       .  S
C948        O949   1.269       .  A
C948       C1360   1.479       .  S
O953       Ni959   1.928       .  S
O953        C974   1.271       .  A
O954       Ni977   1.901       .  S
O954        C963   1.265       .  A
O955       Ni959   1.906       .  S
O955       Ni977   1.903       .  S
O955       Ni971   1.905       .  S
O955        H978   0.966       .  S
C956        O973   1.274       .  A
C956        O965   1.277       .  A
C956       C1144   1.489       .  S
O957       Ni976   1.934       .  S
O957        C963   1.271       .  A
O958       Ni976   1.899       .  S
O958        C960   1.268       .  A
Ni959       O964   1.898       .  S
C960        O970   1.272       .  A
C960       C1117   1.476       .  S
O961        C967   1.269       .  A
O962        C967   1.276   1_545  A
C963       C1096   1.474       .  S
O964        C966   1.267       .  A
O965       Ni976   1.920       .  S
C966        O972   1.273       .  A
C966       C1105   1.486       .  S
C967       C1132   1.474       .  S
H968        O969   0.966       .  S
O969       Ni977   1.911       .  S
O969       Ni971   1.912       .  S
O969       Ni976   1.908       .  S
O970       Ni971   1.922       .  S
Ni971       O975   1.916       .  S
Ni971       O973   1.917       .  S
O972       Ni977   1.935       .  S
C974        O975   1.268       .  A
C974       C1309   1.475       .  S
O979       Ni985   1.926       .  S
O979       C1000   1.270       .  A
O980      Ni1003   1.905       .  S
O980        C989   1.267       .  A
O981       Ni985   1.908       .  S
O981      Ni1003   1.904       .  S
O981       Ni997   1.913       .  S
O981       H1004   0.966       .  S
C982        O999   1.275       .  A
C982        O991   1.278       .  A
C982       C1072   1.498       .  S
O983      Ni1002   1.938       .  S
O983        C989   1.274       .  A
O984      Ni1002   1.906       .  S
O984        C986   1.271       .  A
Ni985       O988   1.931       .  S
Ni985       O990   1.904       .  S
C986        O996   1.277       .  A
C986       C1204   1.495       .  S
O987      Ni1003   1.915       .  S
O987        C993   1.274       .  A
O988        C993   1.277       .  A
C989       C1093   1.480       .  S
O990        C992   1.269       .  A
O991      Ni1002   1.928       .  S
C992        O998   1.270       .  A
C992       C1216   1.491       .  S
H994        O995   0.966       .  S
O995      Ni1003   1.918       .  S
O995       Ni997   1.910       .  S
O995      Ni1002   1.904       .  S
O996       Ni997   1.939       .  S
Ni997      O1001   1.924       .  S
Ni997       O999   1.923       .  S
O998      Ni1003   1.932       .  S
C1000      O1001   1.270       .  A
C1000      C1276   1.480       .  S
O1005     Ni1011   1.920       .  S
O1005      C1026   1.270       .  A
O1006     Ni1029   1.895       .  S
O1006      C1015   1.264       .  A
O1007     Ni1011   1.911       .  S
O1007     Ni1029   1.907       .  S
O1007     Ni1023   1.921       .  S
O1007      H1030   0.966       .  S
C1008      O1025   1.275       .  A
C1008      O1017   1.277       .  A
C1008      C1177   1.486       .  S
O1009     Ni1028   1.942       .  S
O1009      C1015   1.274       .  A
O1010     Ni1028   1.912       .  S
O1010      C1012   1.271       .  A
Ni1011     O1014   1.933       .  S
Ni1011     O1016   1.904       .  S
C1012      O1022   1.274       .  A
C1012      C1069   1.492       .  S
O1013     Ni1029   1.908       .  S
O1013      C2507   1.268   1_455  A
O1014      C2507   1.273   1_455  A
C1015      C1057   1.474       .  S
O1016      C1018   1.270       .  A
O1017     Ni1028   1.928       .  S
C1018      O1024   1.277       .  A
C1018      C1084   1.499       .  S
C1019      O2501   1.268       .  A
C1019      O2502   1.272       .  A
C1019      C1192   1.477       .  S
H1020      O1021   0.966       .  S
O1021     Ni1029   1.909       .  S
O1021     Ni1023   1.906       .  S
O1021     Ni1028   1.914       .  S
O1022     Ni1023   1.929       .  S
Ni1023     O1027   1.909       .  S
Ni1023     O1025   1.917       .  S
O1024     Ni1029   1.952       .  S
C1026      O1027   1.267       .  A
C1026      C1252   1.469       .  S
O1031     Ni1037   1.922       .  S
O1031      C1052   1.268       .  A
O1032     Ni1055   1.899       .  S
O1032      C1041   1.266       .  A
O1033     Ni1037   1.915       .  S
O1033     Ni1055   1.917       .  S
O1033     Ni1049   1.918       .  S
O1033      H1056   0.966       .  S
C1034      O1051   1.273       .  A
C1034      O1043   1.277       .  A
C1034      C1120   1.480       .  S
O1035     Ni1054   1.936       .  S
O1035      C1041   1.272       .  A
O1036     Ni1054   1.907       .  S
O1036      C1038   1.269       .  A
Ni1037     O1040   1.919       .  S
Ni1037     O1042   1.892       .  S
C1038      O1048   1.271       .  A
C1038      C1165   1.483       .  S
O1039     Ni1055   1.908       .  S
O1039      C2533   1.268       .  A
O1040      C2533   1.271       .  A
C1041      C1060   1.475       .  S
O1042      C1044   1.266       .  A
O1043     Ni1054   1.925       .  S
C1044      O1050   1.278       .  A
C1045      O2527   1.267   1_455  A
C1045      O2528   1.270   1_455  A
C1045      C1108   1.475       .  S
H1046      O1047   0.966       .  S
O1047     Ni1055   1.901       .  S
O1047     Ni1049   1.906       .  S
O1047     Ni1054   1.914       .  S
O1048     Ni1049   1.922       .  S
Ni1049     O1053   1.912       .  S
Ni1049     O1051   1.908       .  S
O1050     Ni1055   1.944       .  S
C1052      O1053   1.265       .  A
C1052      C1237   1.470       .  S
C1057      C2546   1.404   1_455  A
C1057      C1062   1.411   1_556  A
C1058      C2545   1.403       .  A
C1058      C1059   1.401       .  A
C1058      H1067   1.084       .  S
C1059      C1060   1.412   1_556  A
C1059      S1063   1.803       .  S
C1060      C2549   1.404       .  A
C1061      C2548   1.404   1_455  A
C1061      C1062   1.400       .  A
C1061      H1068   1.084       .  S
C1062      S1064   1.803       .  S
S1063      H1066   1.406   1_556  S
S1064      H1065   1.406   1_554  S
C1069      C1070   1.406       .  A
C1069      C1074   1.414       .  A
C1070      C1071   1.403       .  A
C1070      H1079   1.083       .  S
C1071      C1072   1.421       .  A
C1071      S1075   1.801       .  S
C1072      C1073   1.409       .  A
C1073      C1074   1.401       .  A
C1073      H1080   1.084       .  S
C1074      S1076   1.803       .  S
S1075      H1078   1.405       .  S
S1076      H1077   1.408       .  S
C1081      C1082   1.404       .  A
C1081      C1086   1.412       .  A
C1082      C1083   1.403       .  A
C1082      H1091   1.084       .  S
C1083      C1084   1.421       .  A
C1083      S1087   1.802       .  S
C1084      C1085   1.410       .  A
C1085      C1086   1.399       .  A
C1085      H1092   1.083       .  S
C1086      S1088   1.804       .  S
S1087      H1090   1.408       .  S
C1093      C1094   1.404   1_556  A
C1093      C1098   1.415   1_565  A
C1094      C1095   1.401       .  A
C1094      H1103   1.084       .  S
C1095      S1099   1.802       .  S
C1096      C1097   1.400   1_554  A
C1097      H1104   1.084       .  S
S1099      H1102   1.406       .  S
C1105      C1106   1.406       .  A
C1105      C1110   1.417       .  A
C1106      C1107   1.402       .  A
C1106      H1115   1.084       .  S
C1107      C1108   1.415       .  A
C1107      S1111   1.801       .  S
C1108      C1109   1.400       .  A
C1109      C1110   1.396       .  A
C1109      H1116   1.084       .  S
C1110      S1112   1.803       .  S
S1111      H1114   1.403   1_455  S
S1112      H1113   1.408       .  S
C1117      C1118   1.404       .  A
C1117      C1122   1.413       .  A
C1118      C1119   1.398       .  A
C1118      H1127   1.084       .  S
C1119      C1120   1.417       .  A
C1119      S1123   1.803       .  S
C1120      C1121   1.405       .  A
C1121      C1122   1.396       .  A
C1121      H1128   1.084       .  S
C1122      S1124   1.805       .  S
S1123      H1126   1.406       .  S
S1124      H1125   1.408       .  S
C1129      C2618   1.410       .  A
C1129      C2622   1.419       .  A
C1130      C2617   1.410       .  A
C1130      C1131   1.395       .  A
C1130      H1139   1.083       .  S
C1131      C1132   1.409       .  A
C1131      S1135   1.804       .  S
C1132      C1133   1.403       .  A
C1133      C1134   1.399       .  A
C1133      H1140   1.084       .  S
C1134      C2617   1.420       .  A
C1134      S2624   1.802       .  S
S1135      H1138   1.407       .  S
S1136      C2622   1.802       .  S
S1136      H1137   1.408       .  S
C1141      C1142   1.405       .  A
C1141      C1146   1.414       .  A
C1142      C1143   1.399       .  A
C1142      H1151   1.084       .  S
C1143      C1144   1.419       .  A
C1143      S1147   1.803       .  S
C1144      C1145   1.408       .  A
C1145      C1146   1.399       .  A
C1145      H1152   1.084       .  S
C1146      S1148   1.804       .  S
S1147      H1150   1.408       .  S
S1148      H1149   1.408       .  S
C1153      C1154   1.401       .  A
C1153      C1158   1.413       .  A
C1154      C1155   1.401       .  A
C1154      H1163   1.083       .  S
C1155      C1156   1.422       .  A
C1155      S1159   1.812       .  S
C1156      C1157   1.407       .  A
C1157      C1158   1.400       .  A
C1157      H1164   1.083       .  S
C1158      S1160   1.801       .  S
S1160      H1161   1.405       .  S
C1165      C1166   1.404       .  A
C1165      C1170   1.413       .  A
C1166      C1167   1.397       .  A
C1166      H1175   1.083       .  S
C1167      C1168   1.418       .  A
C1167      S1171   1.804       .  S
C1168      C1169   1.407       .  A
C1169      C1170   1.401       .  A
C1169      H1176   1.084       .  S
C1170      S1172   1.804       .  S
S1171      H1174   1.407       .  S
S1172      H1173   1.408       .  S
C1177      C1178   1.406       .  A
C1177      C1182   1.417       .  A
C1178      C1179   1.402       .  A
C1178      H1187   1.084       .  S
C1179      C1180   1.415       .  A
C1179      S1183   1.804       .  S
C1180      C1181   1.404       .  A
C1181      C1182   1.399       .  A
C1181      H1188   1.084       .  S
C1182      S1184   1.803       .  S
S1183      H1186   1.407       .  S
S1184      H1185   1.405       .  S
C1190      C1191   1.395       .  A
C1191      C1192   1.410       .  A
C1191      S1195   1.805       .  S
C1192      C1193   1.402       .  A
C1193      C1194   1.404       .  A
C1193      H1200   1.084       .  S
S1195      H1198   1.407       .  S
S1196      H1197   1.408       .  S
C1201      C1202   1.405       .  A
C1201      C1206   1.417       .  A
C1202      C1203   1.401       .  A
C1202      H1211   1.084       .  S
C1203      C1204   1.416       .  A
C1203      S1207   1.793       .  S
C1204      C1205   1.408       .  A
C1205      C1206   1.401       .  A
C1205      H1212   1.084       .  S
C1206      S1208   1.803       .  S
S1207      H1210   1.407       .  S
S1208      H1209   1.408       .  S
C1213      C1214   1.403       .  A
C1213      C1218   1.408       .  A
C1214      C1215   1.404       .  A
C1214      H1223   1.084       .  S
C1215      C2704   1.420       .  A
C1215      S1219   1.800       .  S
C1216      C2703   1.421   1_455  A
C1216      C2705   1.408   1_455  A
C1217      C2704   1.407       .  A
C1217      C1218   1.397       .  A
C1217      H1224   1.084       .  S
C1218      S1220   1.803       .  S
S1219      H2710   1.407       .  S
S1220      H1221   1.407       .  S
H1222      S2707   1.408       .  S
C1225      C1226   1.410       .  A
C1225      C1230   1.419   1_556  A
C1226      C1227   1.404   1_556  A
C1226      H1235   1.084       .  S
C1227      C1228   1.411       .  A
C1227      S1231   1.804   1_554  S
C1228      C1229   1.400       .  A
C1229      C1230   1.399       .  A
C1229      H1236   1.084       .  S
C1230      S1232   1.803       .  S
S1231      H1234   1.405   1_556  S
S1232      H1233   1.408       .  S
C1237      C1238   1.399       .  A
C1237      C1242   1.410       .  A
C1238      C1239   1.400       .  A
C1238      H1247   1.084       .  S
C1239      C1240   1.414       .  A
C1239      S1243   1.799       .  S
C1240      C1241   1.405       .  A
C1241      C1242   1.401       .  A
C1241      H1248   1.084       .  S
C1242      S1244   1.803       .  S
S1243      H1246   1.406       .  S
S1244      H1245   1.407       .  S
C1249      C1250   1.401       .  A
C1249      C1254   1.410       .  A
C1250      C1251   1.400       .  A
C1250      H1259   1.084       .  S
C1251      C1252   1.412       .  A
C1251      S1255   1.803       .  S
C1252      C1253   1.403       .  A
C1253      C1254   1.399       .  A
C1253      H1260   1.084       .  S
C1254      S1256   1.803       .  S
S1255      H1258   1.404       .  S
S1256      H1257   1.407       .  S
C1261      C2750   1.403   1_455  A
C1261      C1266   1.411       .  A
C1262      C2749   1.403       .  A
C1262      C1263   1.399       .  A
C1262      H1271   1.084       .  S
C1263      C1264   1.412       .  A
C1263      S1267   1.803       .  S
C1264      C2753   1.406       .  A
C1265      C2752   1.406   1_455  A
C1265      C1266   1.401       .  A
C1265      H1272   1.084       .  S
C1266      S1268   1.804       .  S
S1267      H1270   1.406       .  S
S1268      H1269   1.405       .  S
C1273      C1274   1.402       .  A
C1273      C1278   1.409       .  A
C1274      C1275   1.404       .  A
C1274      H1283   1.084       .  S
C1275      C1276   1.416       .  A
C1275      S1279   1.798       .  S
C1276      C1277   1.405       .  A
C1277      C1278   1.397       .  A
C1277      H1284   1.084       .  S
C1278      S1280   1.803       .  S
S1279      H1282   1.405       .  S
S1280      H1281   1.407       .  S
C1285      C1286   1.405       .  A
C1285      C1290   1.416       .  A
C1286      C1287   1.401       .  A
C1286      H1295   1.084       .  S
C1287      C1288   1.420       .  A
C1287      S1291   1.801       .  S
C1288      C1289   1.408       .  A
C1289      C1290   1.399       .  A
C1289      H1296   1.084       .  S
C1290      S1292   1.804       .  S
S1291      H1294   1.408       .  S
S1292      H1293   1.408       .  S
C1297      C1298   1.401       .  A
C1297      C1302   1.415       .  A
C1298      C1299   1.400       .  A
C1298      H1307   1.084       .  S
C1299      C1300   1.420       .  A
C1299      S1303   1.804       .  S
C1300      C1301   1.407       .  A
C1301      C1302   1.401       .  A
C1301      H1308   1.084       .  S
C1302      S1304   1.801       .  S
S1303      H1306   1.408       .  S
C1309      C1310   1.405       .  A
C1309      C1314   1.411       .  A
C1310      C1311   1.405       .  A
C1310      H1319   1.084       .  S
C1311      C1312   1.413       .  A
C1311      S1315   1.801       .  S
C1312      C1313   1.402       .  A
C1313      C1314   1.396       .  A
C1313      H1320   1.084       .  S
C1314      S1316   1.803       .  S
S1315      H1318   1.405       .  S
S1316      H1317   1.407       .  S
C1321      C1322   1.401       .  A
C1322      H1331   1.084       .  S
C1323      C1324   1.414   1_545  A
C1324      C1325   1.400       .  A
C1325      C1326   1.399       .  A
C1325      H1332   1.084       .  S
C1326      S1328   1.798       .  S
S1328      H1329   1.407       .  S
C1333      C1334   1.409       .  A
C1333      C1338   1.420       .  A
C1334      C1335   1.400       .  A
C1334      H1343   1.082       .  S
C1335      C1336   1.413       .  A
C1335      S1339   1.810       .  S
C1336      C1337   1.407       .  A
C1337      C1338   1.405       .  A
C1337      H1344   1.084       .  S
C1338      S1340   1.802       .  S
S1339      H2830   1.407       .  S
S1340      H1341   1.408       .  S
H1342      S2827   1.407       .  S
C1345      C1346   1.407       .  A
C1345      C1350   1.415       .  A
C1346      C1347   1.401       .  A
C1346      H1355   1.084       .  S
C1347      C1348   1.412       .  A
C1347      S1351   1.803       .  S
C1348      C1349   1.404       .  A
C1349      C1350   1.397       .  A
C1349      H1356   1.084       .  S
C1350      S1352   1.802       .  S
S1351      H1354   1.407       .  S
S1352      H1353   1.407       .  S
C1357      C1358   1.403       .  A
C1357      C1362   1.413       .  A
C1358      C1359   1.400       .  A
C1358      H1367   1.084       .  S
C1359      C1360   1.412       .  A
C1359      S1363   1.804       .  S
C1360      C1361   1.404       .  A
C1361      C1362   1.406       .  A
C1361      H1368   1.084       .  S
C1362      S1364   1.800       .  S
S1363      H1366   1.407       .  S
S1364      H1365   1.405       .  S
C1369      C1370   1.403       .  A
C1369      C1374   1.415       .  A
C1370      C1371   1.400       .  A
C1370      H1379   1.084       .  S
C1371      C1372   1.417       .  A
C1371      S1375   1.804       .  S
C1372      C1373   1.404       .  A
C1373      C1374   1.401       .  A
C1373      H1380   1.084       .  S
C1374      S1376   1.795       .  S
S1376      H1377   1.397       .  S
C1381      C1382   1.405       .  A
C1381      C1386   1.419       .  A
C1382      C1383   1.401       .  A
C1382      H1391   1.084       .  S
C1383      C1384   1.419       .  A
C1383      S1387   1.794       .  S
C1384      C1385   1.408       .  A
C1385      C1386   1.402       .  A
C1385      H1392   1.084       .  S
C1386      S1388   1.803       .  S
S1387      H1390   1.406       .  S
S1388      H1389   1.408       .  S
C1393      C1394   1.400       .  A
C1393      C1398   1.412       .  A
C1394      C1395   1.399       .  A
C1394      H1403   1.084       .  S
C1395      C2884   1.420   1_455  A
C1395      S1399   1.804       .  S
C1396      C2883   1.420       .  A
C1396      C2885   1.406       .  A
C1397      C2884   1.406   1_455  A
C1397      C1398   1.398       .  A
C1397      H2892   1.082   1_455  S
C1398      S1400   1.800       .  S
S1399      H2890   1.408   1_455  S
S1400      H1401   1.404   1_565  S
H1402      S2887   1.408       .  S
H1404      C2885   1.082       .  S
C1405      C1406   1.405       .  A
C1405      C1410   1.417       .  A
C1406      C1407   1.389       .  A
C1406      H1415   1.084       .  S
C1407      C1408   1.414       .  A
C1407      S1411   1.804       .  S
C1408      C1409   1.408       .  A
C1409      C1410   1.409       .  A
C1409      H1416   1.084       .  S
C1410      S1412   1.800       .  S
S1411      H1414   1.405       .  S
S1412      H1413   1.407       .  S
C1417      C1418   1.404       .  A
C1417      C1422   1.414       .  A
C1418      C1419   1.400       .  A
C1418      H1427   1.084       .  S
C1419      C1420   1.410       .  A
C1419      S1423   1.803       .  S
C1420      C1421   1.404       .  A
C1421      C1422   1.406       .  A
C1421      H1428   1.084       .  S
C1422      S1424   1.800       .  S
S1423      H1426   1.407       .  S
S1424      H1425   1.406       .  S
C1429      C1430   1.406       .  A
C1429      C1434   1.417       .  A
C1430      C1431   1.401       .  A
C1430      H1439   1.083       .  S
C1431      C1432   1.411       .  A
C1431      S1435   1.809       .  S
C1432      C1433   1.402       .  A
C1433      C1434   1.395       .  A
C1433      H1440   1.084       .  S
C1434      S1436   1.802       .  S
S1435      H1438   1.407       .  S
S1436      H1437   1.407       .  S
C1442      C1443   1.394       .  A
C1443      C1444   1.411       .  A
C1443      S1447   1.799       .  S
C1444      C1445   1.401       .  A
C1445      C1446   1.401       .  A
C1445      H1452   1.083       .  S
S1447      H1450   1.402       .  S
S1448      H1449   1.407       .  S
C1453      C1454   1.406       .  A
C1453      C1458   1.415       .  A
C1454      C1455   1.401       .  A
C1454      H1463   1.083       .  S
C1455      C1456   1.411       .  A
C1455      S1459   1.808       .  S
C1456      C1457   1.404       .  A
C1457      C1458   1.397       .  A
C1457      H1464   1.084       .  S
C1458      S1460   1.803       .  S
S1459      H1462   1.407       .  S
S1460      H1461   1.406       .  S
C1465      C1466   1.400       .  A
C1465      C1470   1.414       .  A
C1466      C1467   1.394       .  A
C1466      H1475   1.084       .  S
C1467      C2956   1.418       .  A
C1467      S1471   1.804       .  S
C1468      C2955   1.418       .  A
C1468      C2957   1.407       .  A
C1469      C2956   1.407       .  A
C1469      C1470   1.400       .  A
C1469      H2964   1.083       .  S
C1470      S1472   1.801       .  S
S1471      H2962   1.408       .  S
S1472      H1473   1.404       .  S
H1474      S2959   1.408       .  S
H1476      C2957   1.083       .  S
C1477      C1478   1.402       .  A
C1477      C1482   1.412       .  A
C1478      C1479   1.403       .  A
C1478      H1487   1.082       .  S
C1479      C1480   1.423       .  A
C1479      S1483   1.812       .  S
C1480      C1481   1.408       .  A
C1481      C1482   1.403       .  A
C1481      H1488   1.081       .  S
C1482      S1484   1.803       .  S
S1483      H1486   1.407       .  S
S1484      H1485   1.407       .  S
O1489     Ni1495   1.937       .  S
O1489      C1510   1.273       .  A
O1490     Ni1513   1.925       .  S
O1490      C1499   1.270       .  A
O1491     Ni1495   1.906       .  S
O1491     Ni1513   1.912       .  S
O1491     Ni1507   1.904       .  S
O1491      H1514   0.966       .  S
C1492      O1509   1.270       .  A
C1492      O1501   1.276       .  A
C1492      C2209   1.474       .  S
O1493     Ni1512   1.926       .  S
O1493      C1499   1.269       .  A
O1494     Ni1512   1.895       .  S
O1494      C1496   1.266       .  A
Ni1495     O1498   1.920       .  S
Ni1495     O1500   1.902       .  S
C1496      O1506   1.273       .  A
C1496      C2185   1.479       .  S
O1497     Ni1513   1.919       .  S
O1497      C1503   1.277       .  A
O1498      C1503   1.278       .  A
C1499      C2161   1.484       .  S
O1500      C1502   1.268       .  A
O1501     Ni1512   1.923       .  S
C1502      O1508   1.270       .  A
C1502      C2176   1.475       .  S
C1503      C2197   1.482       .  S
H1504      O1505   0.966       .  S
O1505     Ni1513   1.908       .  S
O1505     Ni1507   1.912       .  S
O1505     Ni1512   1.905       .  S
O1506     Ni1507   1.929       .  S
Ni1507     O1511   1.909       .  S
Ni1507     O1509   1.906       .  S
O1508     Ni1513   1.918       .  S
C1510      O1511   1.265       .  A
C1510      C2221   1.485       .  S
O1515     Ni1521   1.933       .  S
O1515      C1536   1.271       .  A
O1516     Ni1539   1.923       .  S
O1516      C1525   1.271       .  A
O1517     Ni1521   1.896       .  S
O1517     Ni1539   1.901       .  S
O1517     Ni1533   1.901       .  S
O1517      H1540   0.966       .  S
C1518      O1535   1.269       .  A
C1518      O1527   1.270       .  A
C1518      C2113   1.481       .  S
O1519     Ni1538   1.918       .  S
O1519      C1525   1.270       .  A
O1520     Ni1538   1.899       .  S
O1520      C1522   1.270       .  A
Ni1521     O1524   1.922       .  S
Ni1521     O1526   1.895       .  S
C1522      O1532   1.280       .  A
C1522      C2140   1.489       .  S
O1523     Ni1539   1.927       .  S
O1523      C1529   1.281       .  A
O1524      C1529   1.277       .  A
C1525      C2101   1.479       .  S
O1526      C1528   1.269       .  A
O1527     Ni1538   1.927       .  S
C1528      O1534   1.275       .  A
C1528      C2149   1.487       .  S
C1529      C2125   1.494       .  S
H1530      O1531   0.966       .  S
O1531     Ni1539   1.938       .  S
O1531     Ni1533   1.922       .  S
O1531     Ni1538   1.916       .  S
O1532     Ni1533   1.947       .  S
Ni1533     O1537   1.913       .  S
Ni1533     O1535   1.917       .  S
O1534     Ni1539   1.937       .  S
C1536      O1537   1.270       .  A
C1536      C2224   1.498       .  S
O1541     Ni1547   1.931       .  S
O1541      C1562   1.271       .  A
O1542     Ni1565   1.912       .  S
O1542      C1551   1.268       .  A
O1543     Ni1547   1.905       .  S
O1543     Ni1565   1.907       .  S
O1543     Ni1559   1.904       .  S
O1543      H1566   0.966       .  S
C1544      O1561   1.264       .  A
C1544      O1553   1.272       .  A
C1544      C2137   1.472       .  S
O1545     Ni1564   1.918       .  S
O1545      C1551   1.271       .  A
O1546     Ni1564   1.899       .  S
O1546      C1548   1.269       .  A
Ni1547     O1550   1.918       .  S
Ni1547     O1552   1.906       .  S
C1548      O1558   1.277       .  A
C1548      C2077   1.498       .  S
O1549     Ni1565   1.925       .  S
O1549      C1555   1.276       .  A
O1550      C1555   1.276       .  A
C1551      C2056   1.473       .  S
O1552      C1554   1.269       .  A
O1553     Ni2308   1.936       .  S
C1554      O1560   1.272       .  A
C1554      C2092   1.479       .  S
C1555      C2152   1.483       .  S
H1556      O1557   0.966       .  S
O1557     Ni1565   1.924       .  S
O1557     Ni1559   1.909       .  S
O1557     Ni1564   1.909       .  S
O1558     Ni1559   1.953       .  S
Ni1559     O1563   1.905       .  S
Ni1559     O2305   1.897   1_545  S
O1560     Ni1565   1.922       .  S
O1561     Ni2303   1.897       .  S
C1562      O1563   1.266       .  A
C1562      C2065   1.475       .  S
Ni1564     O2297   1.936       .  S
O1567     Ni1573   1.934       .  S
O1567      C1588   1.272       .  A
O1568     Ni1591   1.911       .  S
O1568      C1577   1.266       .  A
O1569     Ni1573   1.911       .  S
O1569     Ni1591   1.905       .  S
O1569     Ni1585   1.906       .  S
O1569      H1592   0.966       .  S
C1570      O1587   1.267       .  A
C1570      O1579   1.272       .  A
C1570      C2785   1.481       .  S
O1571     Ni1590   1.926       .  S
O1571      C1577   1.270       .  A
O1572     Ni1590   1.894       .  S
O1572      C1574   1.267       .  A
Ni1573     O1576   1.922       .  S
Ni1573     O1578   1.905       .  S
C1574      O1584   1.276       .  A
C1574      C2212   1.486       .  S
O1575     Ni1591   1.922       .  S
O1575      C1581   1.278       .  A
O1576      C1581   1.276       .  A
C1577      C2017   1.472       .  S
O1578      C1580   1.269       .  A
O1579     Ni1590   1.930       .  S
C1580      O1586   1.269       .  A
C1580      C2200   1.479       .  S
C1581      C2029   1.491       .  S
H1582      O1583   0.966       .  S
O1583     Ni1591   1.922       .  S
O1583     Ni1585   1.912       .  S
O1583     Ni1590   1.915       .  S
O1584     Ni1585   1.937       .  S
Ni1585     O1589   1.898       .  S
Ni1585     O1587   1.908       .  S
O1586     Ni1591   1.918       .  S
C1588      O1589   1.264       .  A
C1588      C2068   1.470       .  S
O1593     Ni1599   1.935       .  S
O1593      C1614   1.271       .  A
O1594     Ni1617   1.905       .  S
O1594      C1603   1.264       .  A
O1595     Ni1599   1.918       .  S
O1595     Ni1617   1.909       .  S
O1595     Ni1611   1.903       .  S
O1595      H1618   0.966       .  S
C1596      C2188   1.469       .  S
O1597     Ni1616   1.924       .  S
O1597      C1603   1.270       .  A
O1598     Ni1616   1.900       .  S
O1598      C1600   1.268       .  A
Ni1599     O1602   1.922       .  S
Ni1599     O1604   1.907       .  S
C1600      O1610   1.278       .  A
C1600      C2044   1.493       .  S
O1601     Ni1617   1.904       .  S
O1601      C1607   1.270       .  A
O1602      C1607   1.276       .  A
C1603      C1993   1.466       .  S
O1604      C1606   1.270       .  A
O1605     Ni1616   1.926       .  S
C1606      O1612   1.270       .  A
C1606      C2032   1.496       .  S
C1607      C2173   1.479       .  S
H1608      O1609   0.966       .  S
O1609     Ni1617   1.913       .  S
O1609     Ni1611   1.910       .  S
O1609     Ni1616   1.916       .  S
O1610     Ni1611   1.946       .  S
Ni1611     O1615   1.896       .  S
Ni1611     O1613   1.899       .  S
O1612     Ni1617   1.928       .  S
C1614      O1615   1.263       .  A
C1614      C2005   1.471       .  S
O1619     Ni1625   1.942       .  S
O1619      C1640   1.275       .  A
O1620     Ni1643   1.923       .  S
O1620      C1629   1.269       .  A
O1621     Ni1625   1.908       .  S
O1621     Ni1643   1.911       .  S
O1621     Ni1637   1.912       .  S
O1621      H1644   0.966       .  S
C1622      C2080   1.487       .  S
O1623     Ni1642   1.925       .  S
O1623      C1629   1.268       .  A
O1624     Ni1642   1.899       .  S
O1624      C1626   1.266       .  A
Ni1625     O1628   1.930       .  S
Ni1625     O1630   1.908       .  S
C1626      O1636   1.273       .  A
C1626      C2860   1.487   1_545  S
O1627     Ni1643   1.914       .  S
O1627      C1633   1.275       .  A
O1628      C1633   1.278       .  A
C1629      C1984   1.477       .  S
O1630      C1632   1.271       .  A
O1631     Ni1642   1.926       .  S
C1632      O1638   1.274       .  A
C1632      C2128   1.498       .  S
C1633      C2089   1.483       .  S
H1634      O1635   0.966       .  S
O1635     Ni1643   1.912       .  S
O1635     Ni1637   1.909       .  S
O1635     Ni1642   1.912       .  S
O1636     Ni1637   1.935       .  S
Ni1637     O1641   1.898       .  S
Ni1637     O1639   1.918       .  S
O1638     Ni1643   1.936       .  S
C1640      O1641   1.265       .  A
C1640      C2008   1.479       .  S
O1645     Ni1651   1.919       .  S
O1645      C1666   1.269       .  A
O1646     Ni1669   1.907       .  S
O1646      C1655   1.267       .  A
O1647     Ni1651   1.914       .  S
O1647     Ni1669   1.922       .  S
O1647     Ni1663   1.931       .  S
O1647      H1670   0.966       .  S
C1648      O1665   1.278       .  A
C1648      O1657   1.278       .  A
C1648      C1945   1.492       .  S
O1649     Ni1668   1.940       .  S
O1649      C1655   1.273       .  A
O1650     Ni1668   1.905       .  S
O1650      C1652   1.268       .  A
Ni1651     O1654   1.925       .  S
Ni1651     O1656   1.903       .  S
C1652      O1662   1.272       .  A
C1652      C1924   1.481       .  S
O1653     Ni1669   1.907       .  S
O1653      C1659   1.266       .  A
O1654      C1659   1.270       .  A
C1655      C1969   1.497       .  S
O1656      C1658   1.272       .  A
O1657     Ni1668   1.930       .  S
C1658      O1664   1.277       .  A
C1658      C1933   1.498       .  S
C1659      C1957   1.472       .  S
H1660      O1661   0.966       .  S
O1661     Ni1669   1.899       .  S
O1661     Ni1663   1.906       .  S
O1661     Ni1668   1.910       .  S
O1662     Ni1663   1.925       .  S
Ni1663     O1667   1.923       .  S
Ni1663     O1665   1.920       .  S
O1664     Ni1669   1.949       .  S
C1666      O1667   1.270       .  A
C1666      C2164   1.478       .  S
O1671     Ni1677   1.924       .  S
O1671      C1692   1.270       .  A
O1672     Ni1695   1.905       .  S
O1672      C1681   1.264       .  A
O1673     Ni1677   1.908       .  S
O1673     Ni1695   1.915       .  S
O1673     Ni1689   1.915       .  S
O1673      H1696   0.966       .  S
C1674      O1691   1.275       .  A
C1674      O1683   1.279       .  A
C1674      C1912   1.488       .  S
O1675     Ni1694   1.943       .  S
O1675      C1681   1.273       .  A
O1676     Ni1694   1.904       .  S
O1676      C1678   1.269       .  A
Ni1677     O1680   1.932       .  S
Ni1677     O1682   1.897       .  S
C1678      O1688   1.272       .  A
C1678      C1885   1.482       .  S
O1679     Ni1695   1.906       .  S
O1679      C1685   1.269       .  A
O1680      C1685   1.275       .  A
C1681      C1972   1.475       .  S
O1682      C1684   1.268       .  A
O1683     Ni1694   1.929       .  S
C1684      O1690   1.273       .  A
C1684      C1873   1.490   1_655  S
C1685      C1897   1.479       .  S
H1686      O1687   0.966       .  S
O1687     Ni1695   1.904       .  S
O1687     Ni1689   1.908       .  S
O1687     Ni1694   1.910       .  S
O1688     Ni1689   1.924       .  S
Ni1689     O1693   1.922       .  S
Ni1689     O1691   1.915       .  S
O1690     Ni1695   1.940       .  S
C1692      O1693   1.270       .  A
C1692      C2104   1.480       .  S
O1697     Ni1703   1.928       .  S
O1697      C1718   1.271       .  A
O1698     Ni1721   1.900       .  S
O1698      C1707   1.265       .  A
O1699     Ni1703   1.904       .  S
O1699     Ni1721   1.900       .  S
O1699     Ni1715   1.905       .  S
O1699      H1722   0.966       .  S
C1700      O1717   1.274       .  A
C1700      O1709   1.277       .  A
C1700      C1888   1.488       .  S
O1701     Ni1720   1.932       .  S
O1701      C1707   1.271       .  A
O1702     Ni1720   1.898       .  S
O1702      C1704   1.268       .  A
Ni1703     O2450   1.930       .  S
Ni1703     O1708   1.899       .  S
C1704      O1714   1.273       .  A
C1704      C1861   1.478       .  S
O1705     Ni2465   1.899       .  S
O1705      C1711   1.270       .  A
O1706     Ni2447   1.930       .  S
O1706      C1711   1.277       .  A
C1707      C1840   1.472       .  S
O1708      C1710   1.267       .  A
O1709     Ni1720   1.921       .  S
C1710      O1716   1.272       .  A
C1710      C1849   1.483       .  S
C1711      C1876   1.475       .  S
H1712      O1713   0.966       .  S
O1713     Ni1721   1.911       .  S
O1713     Ni1715   1.910       .  S
O1713     Ni1720   1.906       .  S
O1714     Ni1715   1.925       .  S
Ni1715     O1719   1.915       .  S
Ni1715     O1717   1.916       .  S
O1716     Ni1721   1.933       .  S
C1718      O1719   1.268       .  A
C1718      C2053   1.474       .  S
Ni1721     O2449   1.899   1_545  S
O1723     Ni1729   1.926       .  S
O1723      C1744   1.270       .  A
O1724     Ni1747   1.902       .  S
O1724      C1733   1.267       .  A
O1725     Ni1729   1.906       .  S
O1725     Ni1747   1.902       .  S
O1725     Ni1741   1.913       .  S
O1725      H1748   0.966       .  S
C1726      O1743   1.275       .  A
C1726      O1735   1.278       .  A
C1726      C1816   1.495       .  S
O1727     Ni1746   1.936       .  S
O1727      C1733   1.273       .  A
O1728     Ni1746   1.904       .  S
O1728      C1730   1.271       .  A
Ni1729     O1732   1.931       .  S
Ni1729     O1734   1.905       .  S
C1730      O1740   1.277       .  A
C1730      C1948   1.495       .  S
O1731     Ni1747   1.919       .  S
O1731      C1737   1.276       .  A
O1732      C1737   1.277       .  A
C1733      C1837   1.475       .  S
O1734      C1736   1.268       .  A
O1735     Ni1746   1.927       .  S
C1736      O1742   1.269       .  A
C1736      C1960   1.489       .  S
C1737      C2569   1.488       .  S
H1738      O1739   0.966       .  S
O1739     Ni1747   1.920       .  S
O1739     Ni1741   1.910       .  S
O1739     Ni1746   1.903       .  S
O1740     Ni1741   1.940       .  S
Ni1741     O1745   1.922       .  S
Ni1741     O1743   1.924       .  S
O1742     Ni1747   1.930       .  S
C1744      O1745   1.270       .  A
C1744      C2020   1.479       .  S
O1749     Ni1755   1.919       .  S
O1749      C1770   1.270       .  A
O1750     Ni1773   1.896       .  S
O1750      C1759   1.264       .  A
O1751     Ni1755   1.911       .  S
O1751     Ni1773   1.907       .  S
O1751     Ni1767   1.922       .  S
O1751      H1774   0.966       .  S
C1752      O1769   1.275       .  A
C1752      O1761   1.277       .  A
C1752      C1921   1.483       .  S
O1753     Ni1772   1.941       .  S
O1753      C1759   1.274       .  A
O1754     Ni1772   1.914       .  S
O1754      C1756   1.271       .  A
Ni1755     O1758   1.932       .  S
Ni1755     O1760   1.905       .  S
C1756      O1766   1.272       .  A
C1756      C1813   1.491       .  S
O1757     Ni1773   1.907       .  S
C1759      C1801   1.472       .  S
O1760      C1762   1.271       .  A
O1761     Ni1772   1.928       .  S
C1762      O1768   1.278       .  A
C1762      C1828   1.500       .  S
C1763      C1936   1.479       .  S
H1764      O1765   0.966       .  S
O1765     Ni1773   1.906       .  S
O1765     Ni1767   1.905       .  S
O1765     Ni1772   1.914       .  S
O1766     Ni1767   1.927       .  S
Ni1767     O1771   1.907       .  S
Ni1767     O1769   1.917       .  S
O1768     Ni1773   1.955       .  S
C1770      O1771   1.267       .  A
C1770      C1996   1.468       .  S
O1775     Ni1781   1.921       .  S
O1775      C1796   1.268       .  A
O1776     Ni1799   1.898       .  S
O1776      C1785   1.265       .  A
O1777     Ni1781   1.917       .  S
O1777     Ni1799   1.918       .  S
O1777     Ni1793   1.921       .  S
O1777      H1800   0.966       .  S
C1778      O1795   1.271       .  A
C1778      O1787   1.277       .  A
C1778      C1864   1.480       .  S
O1779     Ni1798   1.936       .  S
O1779      C1785   1.272       .  A
O1780     Ni1798   1.907       .  S
O1780      C1782   1.269       .  A
Ni1781     O1784   1.920       .  S
Ni1781     O1786   1.893       .  S
C1782      O1792   1.272       .  A
C1782      C1909   1.486       .  S
O1783     Ni1799   1.908       .  S
C1785      C1804   1.474       .  S
O1786      C1788   1.266       .  A
O1787     Ni1798   1.926       .  S
C1788      O1794   1.279       .  A
C1788      C2644   1.492   1_545  S
C1789      C1852   1.475       .  S
H1790      O1791   0.966       .  S
O1791     Ni1799   1.903       .  S
O1791     Ni1793   1.907       .  S
O1791     Ni1798   1.917       .  S
O1792     Ni1793   1.927       .  S
Ni1793     O1797   1.911       .  S
Ni1793     O1795   1.906       .  S
O1794     Ni1799   1.945       .  S
C1796      O1797   1.265       .  A
C1796      C1981   1.470       .  S
C1801      C1806   1.411   1_556  A
C1802      C1803   1.401       .  A
C1802      H1811   1.084       .  S
C1803      C1804   1.412   1_556  A
C1803      S1807   1.803       .  S
C1805      C1806   1.401       .  A
C1805      H1812   1.084       .  S
C1806      S1808   1.803       .  S
S1807      H1810   1.406   1_556  S
S1808      H1809   1.406   1_554  S
C1813      C1814   1.406       .  A
C1813      C1818   1.413       .  A
C1814      C1815   1.402       .  A
C1814      H1823   1.083       .  S
C1815      C1816   1.420       .  A
C1815      S1819   1.801       .  S
C1816      C1817   1.408       .  A
C1817      C1818   1.401       .  A
C1817      H1824   1.084       .  S
C1818      S1820   1.803       .  S
S1819      H1822   1.406       .  S
S1820      H1821   1.408       .  S
C1825      C2481   1.488       .  S
C1825      C1826   1.405       .  A
C1825      C1830   1.413       .  A
C1826      C1827   1.404       .  A
C1826      H1835   1.084       .  S
C1827      C1828   1.421       .  A
C1827      S1831   1.802       .  S
C1828      C1829   1.410       .  A
C1829      C1830   1.400       .  A
C1829      H1836   1.083       .  S
C1830      S1832   1.804       .  S
S1831      H1834   1.408       .  S
S1832      H2577   1.407       .  S
H1833      S2576   1.407       .  S
C1837      C1838   1.403   1_556  A
C1837      C1842   1.414       .  A
C1838      C1839   1.401       .  A
C1838      H1847   1.084       .  S
C1839      C2584   1.414       .  A
C1839      S1843   1.802       .  S
C1840      C2583   1.414   1_545  A
C1840      C1841   1.399   1_554  A
C1841      C2586   1.397       .  A
C1841      H1848   1.084       .  S
C1842      C2585   1.397       .  A
C1842      S2588   1.800       .  S
S1843      H1846   1.406       .  S
S1844      C2586   1.800       .  S
S1844      H2589   1.407       .  S
H1845      S2588   1.407       .  S
C1849      C1850   1.406       .  A
C1849      C1854   1.416       .  A
C1850      C1851   1.401       .  A
C1850      H1859   1.084       .  S
C1851      C1852   1.415       .  A
C1851      S1855   1.801       .  S
C1852      C1853   1.401       .  A
C1853      C1854   1.396       .  A
C1853      H1860   1.084       .  S
C1854      S1856   1.803       .  S
S1855      H1858   1.404       .  S
S1856      H1857   1.408       .  S
C1861      C1862   1.403       .  A
C1861      C1866   1.414       .  A
C1862      C1863   1.398       .  A
C1862      H1871   1.084       .  S
C1863      C1864   1.417       .  A
C1863      S1867   1.803       .  S
C1864      C1865   1.404       .  A
C1865      C1866   1.396       .  A
C1865      H1872   1.084       .  S
C1866      S1868   1.805       .  S
S1867      H1870   1.406       .  S
S1868      H1869   1.408       .  S
C1874      C1875   1.395       .  A
C1874      H1883   1.083       .  S
C1875      C1876   1.409       .  A
C1875      S1879   1.804       .  S
C1876      C1877   1.404       .  A
C1877      C1878   1.399       .  A
C1877      H1884   1.084       .  S
S1879      H1882   1.407       .  S
S1880      H1881   1.408   1_455  S
C1885      C1886   1.404       .  A
C1885      C1890   1.414       .  A
C1886      C1887   1.399       .  A
C1886      H1895   1.084       .  S
C1887      C1888   1.419       .  A
C1887      S1891   1.803       .  S
C1888      C1889   1.407       .  A
C1889      C1890   1.399       .  A
C1889      H1896   1.084       .  S
C1890      S1892   1.804       .  S
S1891      H1894   1.408       .  S
S1892      H1893   1.408       .  S
C1897      C1898   1.401       .  A
C1897      C1902   1.413       .  A
C1898      C1899   1.401       .  A
C1898      H1907   1.083       .  S
C1899      C1900   1.422       .  A
C1899      S1903   1.812       .  S
C1900      C2532   1.492       .  S
C1900      C1901   1.408       .  A
C1901      C1902   1.400       .  A
C1901      H1908   1.083       .  S
C1902      S1904   1.801       .  S
S1903      H2650   1.407       .  S
S1904      H1905   1.405       .  S
H1906      S2647   1.407       .  S
C1909      C1910   1.404       .  A
C1909      C1914   1.414       .  A
C1910      C1911   1.398       .  A
C1910      H1919   1.083       .  S
C1911      C1912   1.419       .  A
C1911      S1915   1.803       .  S
C1912      C1913   1.407       .  A
C1913      C1914   1.401       .  A
C1913      H1920   1.084       .  S
C1914      S1916   1.804       .  S
S1915      H1918   1.406       .  S
S1916      H1917   1.408       .  S
C1921      C1922   1.406       .  A
C1921      C1926   1.416       .  A
C1922      C1923   1.402       .  A
C1922      H1931   1.084       .  S
C1923      C1924   1.415       .  A
C1923      S1927   1.804       .  S
C1924      C1925   1.403       .  A
C1925      C1926   1.398       .  A
C1925      H1932   1.084       .  S
C1926      S1928   1.802       .  S
S1927      H1930   1.407       .  S
S1928      H1929   1.404       .  S
C1933      C2678   1.410       .  A
C1933      C2682   1.423       .  A
C1934      C2677   1.410   1_545  A
C1934      C1935   1.396       .  A
C1934      H2687   1.083   1_545  S
C1935      C1936   1.411       .  A
C1935      S1939   1.805       .  S
C1936      C1937   1.403       .  A
C1937      C1938   1.405       .  A
C1937      H1944   1.084       .  S
C1938      C2677   1.423   1_545  A
C1938      S2684   1.801   1_545  S
S1939      H1942   1.407       .  S
S1940      C2682   1.801       .  S
S1940      H1941   1.408       .  S
H1943      C2678   1.083       .  S
C1945      C1946   1.406       .  A
C1945      C1950   1.417       .  A
C1946      C1947   1.401       .  A
C1946      H1955   1.084       .  S
C1947      C1948   1.416       .  A
C1947      S1951   1.794       .  S
C1948      C1949   1.408       .  A
C1949      C1950   1.401       .  A
C1949      H1956   1.084       .  S
C1950      S1952   1.804       .  S
S1951      H1954   1.407       .  S
S1952      H1953   1.408       .  S
C1957      C1958   1.402       .  A
C1957      C1962   1.408       .  A
C1958      C1959   1.404       .  A
C1958      H1967   1.084       .  S
C1959      S1963   1.800   1_655  S
C1961      C1962   1.396       .  A
C1961      H1968   1.084       .  S
C1962      S1964   1.804       .  S
S1964      H1965   1.407       .  S
C1969      C1970   1.411       .  A
C1969      C1974   1.420   1_556  A
C1970      C1971   1.405   1_556  A
C1970      H1979   1.083       .  S
C1971      C1972   1.411       .  A
C1971      S1975   1.805   1_554  S
C1972      C1973   1.400       .  A
C1973      C1974   1.399       .  A
C1973      H1980   1.085       .  S
C1974      S1976   1.803       .  S
S1975      H1978   1.405   1_556  S
S1976      H1977   1.408       .  S
C1981      C1982   1.399       .  A
C1981      C1986   1.410       .  A
C1982      C1983   1.400       .  A
C1982      H1991   1.084       .  S
C1983      C1984   1.415       .  A
C1983      S1987   1.799       .  S
C1984      C1985   1.405       .  A
C1985      C1986   1.401       .  A
C1985      H1992   1.084       .  S
C1986      S1988   1.803       .  S
S1987      H1990   1.406       .  S
S1988      H1989   1.407       .  S
C1993      C1994   1.401       .  A
C1993      C1998   1.409       .  A
C1994      C1995   1.400       .  A
C1994      H2003   1.084       .  S
C1995      C1996   1.412       .  A
C1995      S1999   1.803       .  S
C1996      C1997   1.402       .  A
C1997      C1998   1.398       .  A
C1997      H2004   1.084       .  S
C1998      S2000   1.803       .  S
S1999      H2002   1.404       .  S
S2000      H2001   1.407       .  S
C2005      C2010   1.410       .  A
C2006      C2007   1.400       .  A
C2006      H2015   1.084       .  S
C2007      C2008   1.413       .  A
C2007      S2011   1.803       .  S
C2009      C2010   1.401       .  A
C2009      H2016   1.084       .  S
C2010      S2012   1.804       .  S
S2011      H2014   1.406       .  S
S2012      H2013   1.406       .  S
C2017      C2018   1.402       .  A
C2017      C2022   1.409       .  A
C2018      C2019   1.403       .  A
C2018      H2027   1.084       .  S
C2019      C2020   1.415       .  A
C2019      S2023   1.798       .  S
C2020      C2021   1.405       .  A
C2021      C2022   1.397       .  A
C2021      H2028   1.084       .  S
C2022      S2024   1.803       .  S
S2023      H2026   1.406       .  S
S2024      H2025   1.407       .  S
C2029      C2030   1.405       .  A
C2029      C2034   1.417       .  A
C2030      C2031   1.401       .  A
C2030      H2039   1.084       .  S
C2031      C2032   1.421       .  A
C2031      S2035   1.801       .  S
C2032      C2033   1.408       .  A
C2033      C2034   1.399       .  A
C2033      H2040   1.084       .  S
C2034      S2036   1.804       .  S
S2035      H2038   1.408       .  S
S2036      H2037   1.408       .  S
C2041      C2314   1.481   1_545  S
C2041      C2042   1.401       .  A
C2041      C2046   1.415       .  A
C2042      C2043   1.399       .  A
C2042      H2051   1.084       .  S
C2043      C2044   1.420       .  A
C2043      S2047   1.804       .  S
C2044      C2045   1.408       .  A
C2045      C2046   1.402       .  A
C2045      H2052   1.084       .  S
C2046      S2048   1.802       .  S
S2047      H2050   1.408       .  S
S2048      H2793   1.403   1_545  S
H2049      S2792   1.403       .  S
C2053      C2054   1.404       .  A
C2053      C2058   1.411       .  A
C2054      C2055   1.404       .  A
C2054      H2063   1.084       .  S
C2055      C2056   1.412       .  A
C2055      S2059   1.801       .  S
C2056      C2057   1.402       .  A
C2057      C2058   1.396       .  A
C2057      H2064   1.084       .  S
C2058      S2060   1.804       .  S
S2059      H2062   1.405       .  S
S2060      H2061   1.407       .  S
C2065      C2066   1.402       .  A
C2065      C2814   1.414   1_545  A
C2066      C2811   1.399       .  A
C2066      H2075   1.084       .  S
C2067      C2810   1.399       .  A
C2067      C2068   1.413       .  A
C2067      S2815   1.802       .  S
C2068      C2069   1.400       .  A
C2069      C2070   1.399       .  A
C2069      H2076   1.084       .  S
C2070      C2809   1.414       .  A
C2070      S2072   1.798       .  S
S2071      C2811   1.802       .  S
S2071      H2818   1.406   1_545  S
S2072      H2073   1.407       .  S
H2074      S2815   1.406       .  S
C2077      C2078   1.409       .  A
C2077      C2082   1.419       .  A
C2078      C2079   1.399       .  A
C2078      H2087   1.082       .  S
C2079      C2080   1.412       .  A
C2079      S2083   1.810       .  S
C2080      C2081   1.407       .  A
C2081      C2082   1.405       .  A
C2081      H2088   1.084       .  S
C2082      S2084   1.802       .  S
S2084      H2085   1.407       .  S
C2089      C2090   1.406       .  A
C2089      C2094   1.415       .  A
C2090      C2091   1.401       .  A
C2090      H2099   1.084       .  S
C2091      C2092   1.413       .  A
C2091      S2095   1.804       .  S
C2092      C2093   1.404       .  A
C2093      C2094   1.397       .  A
C2093      H2100   1.084       .  S
C2094      S2096   1.801       .  S
S2095      H2098   1.407       .  S
S2096      H2097   1.407       .  S
C2101      C2102   1.403       .  A
C2101      C2106   1.413       .  A
C2102      C2103   1.400       .  A
C2102      H2111   1.084       .  S
C2103      C2104   1.413       .  A
C2103      S2107   1.804       .  S
C2104      C2105   1.404       .  A
C2105      C2106   1.407       .  A
C2105      H2112   1.084       .  S
C2106      S2108   1.800       .  S
S2107      H2110   1.407       .  S
S2108      H2109   1.406       .  S
C2113      C2114   1.403       .  A
C2113      C2118   1.414       .  A
C2114      C2115   1.400       .  A
C2114      H2123   1.084       .  S
C2115      C2116   1.417       .  A
C2115      S2119   1.804       .  S
C2116      C2370   1.487       .  S
C2116      C2117   1.404       .  A
C2117      C2118   1.401       .  A
C2117      H2124   1.084       .  S
C2118      S2120   1.795       .  S
S2119      H2866   1.408       .  S
S2120      H2121   1.398       .  S
H2122      S2863   1.408       .  S
C2125      C2126   1.405       .  A
C2125      C2130   1.419       .  A
C2126      C2127   1.400       .  A
C2126      H2135   1.084       .  S
C2127      C2128   1.418       .  A
C2127      S2131   1.793       .  S
C2128      C2129   1.408       .  A
C2129      C2130   1.401       .  A
C2129      H2136   1.084       .  S
C2130      S2132   1.803       .  S
S2131      H2134   1.406       .  S
S2132      H2133   1.408       .  S
C2137      C2138   1.400       .  A
C2137      C2142   1.411       .  A
C2138      C2139   1.400       .  A
C2138      H2147   1.084       .  S
C2139      S2143   1.804       .  S
C2141      C2142   1.397       .  A
C2142      S2144   1.800       .  S
S2144      H2145   1.404       .  S
C2149      C2150   1.405       .  A
C2149      C2154   1.417       .  A
C2150      C2151   1.389       .  A
C2150      H2159   1.084       .  S
C2151      C2152   1.414       .  A
C2151      S2155   1.804       .  S
C2152      C2153   1.408       .  A
C2153      C2154   1.409       .  A
C2153      H2160   1.084       .  S
C2154      S2156   1.800       .  S
S2155      H2158   1.405       .  S
S2156      H2157   1.407       .  S
C2161      C2162   1.404       .  A
C2161      C2166   1.415       .  A
C2162      C2163   1.400       .  A
C2162      H2171   1.084       .  S
C2163      C2164   1.410       .  A
C2163      S2167   1.803       .  S
C2164      C2165   1.405       .  A
C2165      C2166   1.408       .  A
C2165      H2172   1.084       .  S
C2166      S2168   1.800       .  S
S2167      H2170   1.407       .  S
S2168      H2169   1.406       .  S
C2173      C2174   1.406       .  A
C2173      C2178   1.417       .  A
C2174      C2175   1.401       .  A
C2174      H2183   1.083       .  S
C2175      C2176   1.412       .  A
C2175      S2179   1.808       .  S
C2176      C2177   1.402       .  A
C2177      C2178   1.395       .  A
C2177      H2184   1.084       .  S
C2178      S2180   1.802       .  S
S2179      H2182   1.407       .  S
S2180      H2181   1.407       .  S
C2185      C2930   1.403       .  A
C2185      C2934   1.417       .  A
C2186      C2929   1.403   1_545  A
C2186      C2187   1.394       .  A
C2186      H2939   1.083   1_545  S
C2187      C2188   1.411       .  A
C2187      S2191   1.799       .  S
C2188      C2189   1.401       .  A
C2189      C2190   1.401       .  A
C2189      H2196   1.083       .  S
C2190      C2929   1.417   1_545  A
C2190      S2936   1.810       .  S
S2191      H2194   1.403       .  S
S2192      C2934   1.810       .  S
S2192      H2193   1.407       .  S
H2195      C2930   1.083       .  S
C2197      C2198   1.406       .  A
C2197      C2202   1.416       .  A
C2198      C2199   1.401       .  A
C2198      H2207   1.083       .  S
C2199      C2200   1.411       .  A
C2199      S2203   1.809       .  S
C2200      C2201   1.405       .  A
C2201      C2202   1.398       .  A
C2201      H2208   1.084       .  S
C2202      S2204   1.803       .  S
S2203      H2206   1.407       .  S
S2204      H2205   1.406       .  S
C2209      C2210   1.401       .  A
C2209      C2214   1.414       .  A
C2210      C2211   1.394       .  A
C2210      H2219   1.084       .  S
C2211      S2215   1.803       .  S
C2213      C2214   1.399       .  A
C2214      S2216   1.801       .  S
S2216      H2217   1.405       .  S
C2221      C2222   1.402       .  A
C2221      C2226   1.412       .  A
C2222      C2223   1.403       .  A
C2222      H2231   1.082       .  S
C2223      C2224   1.423       .  A
C2223      S2227   1.812       .  S
C2224      C2225   1.408       .  A
C2225      C2226   1.404       .  A
C2225      H2232   1.081       .  S
C2226      S2228   1.803       .  S
S2227      H2230   1.407       .  S
S2228      H2229   1.407       .  S
O2233     Ni2239   1.937       .  S
O2233      C2254   1.273       .  A
O2234     Ni2257   1.925       .  S
O2234      C2243   1.270       .  A
O2235     Ni2239   1.906       .  S
O2235     Ni2257   1.912       .  S
O2235     Ni2251   1.904       .  S
O2235      H2258   0.966       .  S
C2236      O2253   1.271       .  A
C2236      O2245   1.276       .  A
C2236      C2953   1.474       .  S
O2237     Ni2256   1.926       .  S
O2237      C2243   1.269       .  A
O2238     Ni2256   1.895       .  S
O2238      C2240   1.266       .  A
Ni2239     O2242   1.920       .  S
Ni2239     O2244   1.902       .  S
C2240      O2250   1.273       .  A
C2240      C2929   1.478       .  S
O2241     Ni2257   1.919       .  S
O2241      C2247   1.276       .  A
O2242      C2247   1.278       .  A
C2243      C2905   1.484       .  S
O2244      C2246   1.268       .  A
O2245     Ni2256   1.923       .  S
C2246      O2252   1.270       .  A
C2246      C2920   1.475       .  S
C2247      C2941   1.482       .  S
H2248      O2249   0.966       .  S
O2249     Ni2257   1.908       .  S
O2249     Ni2251   1.912       .  S
O2249     Ni2256   1.905       .  S
O2250     Ni2251   1.928       .  S
Ni2251     O2255   1.909       .  S
Ni2251     O2253   1.906       .  S
O2252     Ni2257   1.918       .  S
C2254      O2255   1.265       .  A
C2254      C2965   1.485       .  S
O2259     Ni2265   1.933       .  S
O2259      C2280   1.271       .  A
O2260     Ni2283   1.923       .  S
O2260      C2269   1.271       .  A
O2261     Ni2265   1.896       .  S
O2261     Ni2283   1.901       .  S
O2261     Ni2277   1.901       .  S
O2261      H2284   0.966       .  S
C2262      O2279   1.269       .  A
C2262      O2271   1.270       .  A
C2262      C2857   1.481       .  S
O2263     Ni2282   1.918       .  S
O2263      C2269   1.270       .  A
O2264     Ni2282   1.899       .  S
O2264      C2266   1.270       .  A
Ni2265     O2268   1.922       .  S
Ni2265     O2270   1.895       .  S
C2266      O2276   1.280       .  A
C2266      C2884   1.489       .  S
O2267     Ni2283   1.927       .  S
O2267      C2273   1.281       .  A
O2268      C2273   1.277       .  A
C2269      C2845   1.479       .  S
O2270      C2272   1.269       .  A
O2271     Ni2282   1.927       .  S
C2272      O2278   1.275       .  A
C2272      C2893   1.487       .  S
C2273      C2869   1.494       .  S
H2274      O2275   0.966       .  S
O2275     Ni2283   1.938       .  S
O2275     Ni2277   1.922       .  S
O2275     Ni2282   1.916       .  S
O2276     Ni2277   1.947       .  S
Ni2277     O2281   1.913       .  S
Ni2277     O2279   1.917       .  S
O2278     Ni2283   1.937       .  S
C2280      O2281   1.270       .  A
C2280      C2968   1.498       .  S
O2285     Ni2291   1.931       .  S
O2285      C2306   1.271       .  A
O2286     Ni2309   1.912       .  S
O2286      C2295   1.268       .  A
O2287     Ni2291   1.905       .  S
O2287     Ni2309   1.907       .  S
O2287     Ni2303   1.903       .  S
O2287      H2310   0.966       .  S
C2288      O2305   1.264       .  A
C2288      O2297   1.272   1_565  A
C2288      C2881   1.472       .  S
O2289     Ni2308   1.918       .  S
O2289      C2295   1.271       .  A
O2290     Ni2308   1.899       .  S
O2290      C2292   1.269       .  A
Ni2291     O2294   1.918       .  S
Ni2291     O2296   1.906       .  S
C2292      O2302   1.277       .  A
C2292      C2821   1.498       .  S
O2293     Ni2309   1.925       .  S
O2293      C2299   1.276       .  A
O2294      C2299   1.276       .  A
C2295      C2800   1.473       .  S
O2296      C2298   1.269       .  A
C2298      O2304   1.272       .  A
C2298      C2836   1.479       .  S
C2299      C2896   1.483       .  S
H2300      O2301   0.966       .  S
O2301     Ni2309   1.924       .  S
O2301     Ni2303   1.909       .  S
O2301     Ni2308   1.909       .  S
O2302     Ni2303   1.953       .  S
Ni2303     O2307   1.905       .  S
O2304     Ni2309   1.922       .  S
C2306      O2307   1.266       .  A
C2306      C2809   1.475       .  S
O2311     Ni2317   1.934       .  S
O2311      C2332   1.272       .  A
O2312     Ni2335   1.911       .  S
O2312      C2321   1.266       .  A
O2313     Ni2317   1.911       .  S
O2313     Ni2335   1.905       .  S
O2313     Ni2329   1.906       .  S
O2313      H2336   0.966       .  S
C2314      O2331   1.267       .  A
C2314      O2323   1.272       .  A
O2315     Ni2334   1.926       .  S
O2315      C2321   1.270       .  A
O2316     Ni2334   1.894       .  S
O2316      C2318   1.267       .  A
Ni2317     O2320   1.922       .  S
Ni2317     O2322   1.905       .  S
C2318      O2328   1.276       .  A
C2318      C2956   1.486       .  S
O2319     Ni2335   1.922       .  S
O2319      C2325   1.278       .  A
O2320      C2325   1.276       .  A
C2321      C2761   1.473       .  S
O2322      C2324   1.269       .  A
O2323     Ni2334   1.930       .  S
C2324      O2330   1.269       .  A
C2324      C2944   1.479       .  S
C2325      C2773   1.491       .  S
H2326      O2327   0.966       .  S
O2327     Ni2335   1.923       .  S
O2327     Ni2329   1.913       .  S
O2327     Ni2334   1.915       .  S
O2328     Ni2329   1.938       .  S
Ni2329     O2333   1.899       .  S
Ni2329     O2331   1.908       .  S
O2330     Ni2335   1.918       .  S
C2332      O2333   1.264       .  A
C2332      C2812   1.470       .  S
O2337     Ni2343   1.935       .  S
O2337      C2358   1.271       .  A
O2338     Ni2361   1.905       .  S
O2338      C2347   1.264       .  A
O2339     Ni2343   1.918       .  S
O2339     Ni2361   1.909       .  S
O2339     Ni2355   1.903       .  S
O2339      H2362   0.966       .  S
C2340      C2932   1.469       .  S
O2341     Ni2360   1.924       .  S
O2341      C2347   1.270       .  A
O2342     Ni2360   1.900       .  S
O2342      C2344   1.268       .  A
Ni2343     O2346   1.922       .  S
Ni2343     O2348   1.907       .  S
C2344      O2354   1.278       .  A
C2344      C2788   1.493       .  S
O2345     Ni2361   1.904       .  S
O2345      C2351   1.270       .  A
O2346      C2351   1.276       .  A
C2347      C2737   1.466       .  S
O2348      C2350   1.270       .  A
O2349     Ni2360   1.926       .  S
C2350      O2356   1.270       .  A
C2350      C2776   1.496       .  S
C2351      C2917   1.479       .  S
H2352      O2353   0.966       .  S
O2353     Ni2361   1.913       .  S
O2353     Ni2355   1.910       .  S
O2353     Ni2360   1.917       .  S
O2354     Ni2355   1.946       .  S
Ni2355     O2359   1.896       .  S
Ni2355     O2357   1.899       .  S
O2356     Ni2361   1.928       .  S
C2358      O2359   1.263       .  A
C2358      C2749   1.471       .  S
O2363     Ni2369   1.942       .  S
O2363      C2384   1.275       .  A
O2364     Ni2387   1.923       .  S
O2364      C2373   1.269       .  A
O2365     Ni2369   1.908       .  S
O2365     Ni2387   1.911       .  S
O2365     Ni2381   1.912       .  S
O2365      H2388   0.966       .  S
C2366      C2824   1.487       .  S
O2367     Ni2386   1.925       .  S
O2367      C2373   1.268       .  A
O2368     Ni2386   1.899       .  S
O2368      C2370   1.266       .  A
Ni2369     O2372   1.930       .  S
Ni2369     O2374   1.908       .  S
C2370      O2380   1.273       .  A
O2371     Ni2387   1.914       .  S
O2371      C2377   1.275       .  A
O2372      C2377   1.278       .  A
C2373      C2728   1.477       .  S
O2374      C2376   1.271       .  A
O2375     Ni2386   1.926       .  S
C2376      O2382   1.274       .  A
C2376      C2872   1.498       .  S
C2377      C2833   1.483       .  S
H2378      O2379   0.966       .  S
O2379     Ni2387   1.912       .  S
O2379     Ni2381   1.909       .  S
O2379     Ni2386   1.912       .  S
O2380     Ni2381   1.935       .  S
Ni2381     O2385   1.898       .  S
Ni2381     O2383   1.918       .  S
O2382     Ni2387   1.936       .  S
C2384      O2385   1.265       .  A
C2384      C2752   1.479       .  S
O2389     Ni2395   1.919       .  S
O2389      C2410   1.269       .  A
O2390     Ni2413   1.907       .  S
O2390      C2399   1.267       .  A
O2391     Ni2395   1.914       .  S
O2391     Ni2413   1.922       .  S
O2391     Ni2407   1.931       .  S
O2391      H2414   0.966       .  S
C2392      O2409   1.278       .  A
C2392      O2401   1.278       .  A
C2392      C2689   1.492       .  S
O2393     Ni2412   1.940       .  S
O2393      C2399   1.273       .  A
O2394     Ni2412   1.905       .  S
O2394      C2396   1.268       .  A
Ni2395     O2398   1.925       .  S
Ni2395     O2400   1.903       .  S
C2396      O2406   1.272       .  A
C2396      C2668   1.481       .  S
O2397     Ni2413   1.908       .  S
O2397      C2403   1.266       .  A
O2398      C2403   1.270       .  A
C2399      C2713   1.497       .  S
O2400      C2402   1.272       .  A
O2401     Ni2412   1.930       .  S
C2402      O2408   1.277       .  A
C2402      C2677   1.498       .  S
C2403      C2701   1.472       .  S
H2404      O2405   0.966       .  S
O2405     Ni2413   1.899       .  S
O2405     Ni2407   1.906       .  S
O2405     Ni2412   1.910       .  S
O2406     Ni2407   1.925       .  S
Ni2407     O2411   1.923       .  S
Ni2407     O2409   1.920       .  S
O2408     Ni2413   1.949       .  S
C2410      O2411   1.270       .  A
C2410      C2908   1.478       .  S
O2415     Ni2421   1.924       .  S
O2415      C2436   1.270       .  A
O2416     Ni2439   1.905       .  S
O2416      C2425   1.264       .  A
O2417     Ni2421   1.908       .  S
O2417     Ni2439   1.915       .  S
O2417     Ni2433   1.915       .  S
O2417      H2440   0.966       .  S
C2418      O2435   1.275       .  A
C2418      O2427   1.279       .  A
C2418      C2656   1.488       .  S
O2419     Ni2438   1.943       .  S
O2419      C2425   1.273       .  A
O2420     Ni2438   1.905       .  S
O2420      C2422   1.269       .  A
Ni2421     O2424   1.932       .  S
Ni2421     O2426   1.897       .  S
C2422      O2432   1.272       .  A
C2422      C2629   1.482       .  S
O2423     Ni2439   1.906       .  S
O2423      C2429   1.269       .  A
O2424      C2429   1.275       .  A
C2425      C2716   1.475       .  S
O2426      C2428   1.268       .  A
O2427     Ni2438   1.929       .  S
C2428      O2434   1.273       .  A
C2428      C2617   1.490   1_655  S
C2429      C2641   1.479       .  S
H2430      O2431   0.966       .  S
O2431     Ni2439   1.904       .  S
O2431     Ni2433   1.908       .  S
O2431     Ni2438   1.910       .  S
O2432     Ni2433   1.924       .  S
Ni2433     O2437   1.922       .  S
Ni2433     O2435   1.915       .  S
O2434     Ni2439   1.940       .  S
C2436      O2437   1.270       .  A
C2436      C2848   1.480       .  S
O2441     Ni2447   1.928       .  S
O2441      C2462   1.271       .  A
O2442     Ni2465   1.900       .  S
O2442      C2451   1.265       .  A
O2443     Ni2447   1.904       .  S
O2443     Ni2465   1.900       .  S
O2443     Ni2459   1.905       .  S
O2443      H2466   0.966       .  S
C2444      O2461   1.274       .  A
C2444      O2453   1.277       .  A
C2444      C2632   1.488       .  S
O2445     Ni2464   1.932       .  S
O2445      C2451   1.271       .  A
O2446     Ni2464   1.898       .  S
O2446      C2448   1.268       .  A
Ni2447     O2452   1.899       .  S
C2448      O2458   1.273       .  A
C2448      C2605   1.478       .  S
O2449      C2455   1.270       .  A
O2450      C2455   1.277   1_545  A
C2451      C2584   1.472       .  S
O2452      C2454   1.267       .  A
O2453     Ni2464   1.921       .  S
C2454      O2460   1.272       .  A
C2454      C2593   1.484       .  S
C2455      C2620   1.475       .  S
H2456      O2457   0.966       .  S
O2457     Ni2465   1.911       .  S
O2457     Ni2459   1.910       .  S
O2457     Ni2464   1.906       .  S
O2458     Ni2459   1.925       .  S
Ni2459     O2463   1.915       .  S
Ni2459     O2461   1.916       .  S
O2460     Ni2465   1.933       .  S
C2462      O2463   1.268       .  A
C2462      C2797   1.475       .  S
O2467     Ni2473   1.926       .  S
O2467      C2488   1.270       .  A
O2468     Ni2491   1.901       .  S
O2468      C2477   1.267       .  A
O2469     Ni2473   1.906       .  S
O2469     Ni2491   1.902       .  S
O2469     Ni2485   1.913       .  S
O2469      H2492   0.966       .  S
C2470      O2487   1.275       .  A
C2470      O2479   1.278       .  A
C2470      C2560   1.495       .  S
O2471     Ni2490   1.936       .  S
O2471      C2477   1.273       .  A
O2472     Ni2490   1.904       .  S
O2472      C2474   1.271       .  A
Ni2473     O2476   1.931       .  S
Ni2473     O2478   1.905       .  S
C2474      O2484   1.277       .  A
C2474      C2692   1.495       .  S
O2475     Ni2491   1.919       .  S
O2475      C2481   1.276   1_565  A
O2476      C2481   1.277   1_565  A
C2477      C2581   1.475       .  S
O2478      C2480   1.268       .  A
O2479     Ni2490   1.927       .  S
C2480      O2486   1.269       .  A
C2480      C2704   1.489       .  S
H2482      O2483   0.966       .  S
O2483     Ni2491   1.920       .  S
O2483     Ni2485   1.910       .  S
O2483     Ni2490   1.903       .  S
O2484     Ni2485   1.941       .  S
Ni2485     O2489   1.922       .  S
Ni2485     O2487   1.924       .  S
O2486     Ni2491   1.930       .  S
C2488      O2489   1.270       .  A
C2488      C2764   1.479       .  S
O2493     Ni2499   1.919       .  S
O2493      C2514   1.270       .  A
O2494     Ni2517   1.896       .  S
O2494      C2503   1.264       .  A
O2495     Ni2499   1.911       .  S
O2495     Ni2517   1.907       .  S
O2495     Ni2511   1.922       .  S
O2495      H2518   0.966       .  S
C2496      O2513   1.275       .  A
C2496      O2505   1.277       .  A
C2496      C2665   1.483       .  S
O2497     Ni2516   1.941       .  S
O2497      C2503   1.274       .  A
O2498     Ni2516   1.913       .  S
O2498      C2500   1.271       .  A
Ni2499     O2502   1.932       .  S
Ni2499     O2504   1.905       .  S
C2500      O2510   1.272       .  A
C2500      C2557   1.491       .  S
O2501     Ni2517   1.907       .  S
C2503      C2545   1.473       .  S
O2504      C2506   1.271       .  A
O2505     Ni2516   1.928       .  S
C2506      O2512   1.278       .  A
C2506      C2572   1.500       .  S
C2507      C2680   1.479       .  S
H2508      O2509   0.966       .  S
O2509     Ni2517   1.906       .  S
O2509     Ni2511   1.906       .  S
O2509     Ni2516   1.914       .  S
O2510     Ni2511   1.927       .  S
Ni2511     O2515   1.908       .  S
Ni2511     O2513   1.916       .  S
O2512     Ni2517   1.956       .  S
C2514      O2515   1.267       .  A
C2514      C2740   1.468       .  S
O2519     Ni2525   1.921       .  S
O2519      C2540   1.268       .  A
O2520     Ni2543   1.898       .  S
O2520      C2529   1.265       .  A
O2521     Ni2525   1.917       .  S
O2521     Ni2543   1.918       .  S
O2521     Ni2537   1.921       .  S
O2521      H2544   0.966       .  S
C2522      O2539   1.271       .  A
C2522      O2531   1.277       .  A
C2522      C2608   1.480       .  S
O2523     Ni2542   1.936       .  S
O2523      C2529   1.272       .  A
O2524     Ni2542   1.907       .  S
O2524      C2526   1.269       .  A
Ni2525     O2528   1.920       .  S
Ni2525     O2530   1.893       .  S
C2526      O2536   1.272       .  A
C2526      C2653   1.486       .  S
O2527     Ni2543   1.908       .  S
C2529      C2548   1.475       .  S
O2530      C2532   1.266       .  A
O2531     Ni2542   1.926       .  S
C2532      O2538   1.279       .  A
C2533      C2596   1.476       .  S
H2534      O2535   0.966       .  S
O2535     Ni2543   1.903       .  S
O2535     Ni2537   1.907       .  S
O2535     Ni2542   1.917       .  S
O2536     Ni2537   1.927       .  S
Ni2537     O2541   1.911       .  S
Ni2537     O2539   1.906       .  S
O2538     Ni2543   1.945       .  S
C2540      O2541   1.265       .  A
C2540      C2725   1.470       .  S
C2545      C2550   1.411   1_556  A
C2546      C2547   1.401       .  A
C2546      H2555   1.084       .  S
C2547      C2548   1.412   1_556  A
C2547      S2551   1.803       .  S
C2549      C2550   1.401       .  A
C2549      H2556   1.084       .  S
C2550      S2552   1.803       .  S
S2551      H2554   1.406   1_556  S
S2552      H2553   1.406   1_554  S
C2557      C2558   1.406       .  A
C2557      C2562   1.413       .  A
C2558      C2559   1.402       .  A
C2558      H2567   1.083       .  S
C2559      C2560   1.420       .  A
C2559      S2563   1.801       .  S
C2560      C2561   1.408       .  A
C2561      C2562   1.401       .  A
C2561      H2568   1.084       .  S
C2562      S2564   1.803       .  S
S2563      H2566   1.406       .  S
S2564      H2565   1.408       .  S
C2569      C2570   1.405       .  A
C2569      C2574   1.413       .  A
C2570      C2571   1.404       .  A
C2570      H2579   1.084       .  S
C2571      C2572   1.421       .  A
C2571      S2575   1.802       .  S
C2572      C2573   1.410       .  A
C2573      C2574   1.400       .  A
C2573      H2580   1.083       .  S
C2574      S2576   1.804       .  S
S2575      H2578   1.408       .  S
C2581      C2582   1.403   1_556  A
C2581      C2586   1.414   1_565  A
C2582      C2583   1.401       .  A
C2582      H2591   1.084       .  S
C2583      S2587   1.802       .  S
C2584      C2585   1.399   1_554  A
C2585      H2592   1.084       .  S
S2587      H2590   1.406       .  S
C2593      C2594   1.406       .  A
C2593      C2598   1.416       .  A
C2594      C2595   1.401       .  A
C2594      H2603   1.084       .  S
C2595      C2596   1.415       .  A
C2595      S2599   1.801       .  S
C2596      C2597   1.401       .  A
C2597      C2598   1.396       .  A
C2597      H2604   1.084       .  S
C2598      S2600   1.803       .  S
S2599      H2602   1.404       .  S
S2600      H2601   1.408       .  S
C2605      C2606   1.403       .  A
C2605      C2610   1.414       .  A
C2606      C2607   1.398       .  A
C2606      H2615   1.084       .  S
C2607      C2608   1.417       .  A
C2607      S2611   1.803       .  S
C2608      C2609   1.404       .  A
C2609      C2610   1.396       .  A
C2609      H2616   1.084       .  S
C2610      S2612   1.805       .  S
S2611      H2614   1.406       .  S
S2612      H2613   1.408       .  S
C2618      C2619   1.395       .  A
C2618      H2627   1.083       .  S
C2619      C2620   1.409       .  A
C2619      S2623   1.804       .  S
C2620      C2621   1.404       .  A
C2621      C2622   1.399       .  A
C2621      H2628   1.084       .  S
S2623      H2626   1.407       .  S
S2624      H2625   1.408   1_455  S
C2629      C2630   1.404       .  A
C2629      C2634   1.414       .  A
C2630      C2631   1.399       .  A
C2630      H2639   1.084       .  S
C2631      C2632   1.419       .  A
C2631      S2635   1.803       .  S
C2632      C2633   1.407       .  A
C2633      C2634   1.398       .  A
C2633      H2640   1.084       .  S
C2634      S2636   1.804       .  S
S2635      H2638   1.408       .  S
S2636      H2637   1.408       .  S
C2641      C2642   1.401       .  A
C2641      C2646   1.412       .  A
C2642      C2643   1.401       .  A
C2642      H2651   1.083       .  S
C2643      C2644   1.422       .  A
C2643      S2647   1.812       .  S
C2644      C2645   1.408       .  A
C2645      C2646   1.400       .  A
C2645      H2652   1.083       .  S
C2646      S2648   1.801       .  S
S2648      H2649   1.405       .  S
C2653      C2654   1.404       .  A
C2653      C2658   1.414       .  A
C2654      C2655   1.398       .  A
C2654      H2663   1.083       .  S
C2655      C2656   1.419       .  A
C2655      S2659   1.803       .  S
C2656      C2657   1.407       .  A
C2657      C2658   1.401       .  A
C2657      H2664   1.084       .  S
C2658      S2660   1.804       .  S
S2659      H2662   1.406       .  S
S2660      H2661   1.408       .  S
C2665      C2666   1.406       .  A
C2665      C2670   1.416       .  A
C2666      C2667   1.402       .  A
C2666      H2675   1.084       .  S
C2667      C2668   1.415       .  A
C2667      S2671   1.804       .  S
C2668      C2669   1.403       .  A
C2669      C2670   1.397       .  A
C2669      H2676   1.084       .  S
C2670      S2672   1.802       .  S
S2671      H2674   1.407       .  S
S2672      H2673   1.404       .  S
C2678      C2679   1.396       .  A
C2679      C2680   1.411       .  A
C2679      S2683   1.805       .  S
C2680      C2681   1.403       .  A
C2681      C2682   1.404       .  A
C2681      H2688   1.084       .  S
S2683      H2686   1.407       .  S
S2684      H2685   1.408       .  S
C2689      C2690   1.406       .  A
C2689      C2694   1.417       .  A
C2690      C2691   1.401       .  A
C2690      H2699   1.084       .  S
C2691      C2692   1.416       .  A
C2691      S2695   1.794       .  S
C2692      C2693   1.408       .  A
C2693      C2694   1.401       .  A
C2693      H2700   1.084       .  S
C2694      S2696   1.804       .  S
S2695      H2698   1.407       .  S
S2696      H2697   1.408       .  S
C2701      C2702   1.402       .  A
C2701      C2706   1.408       .  A
C2702      C2703   1.404       .  A
C2702      H2711   1.084       .  S
C2703      S2707   1.800   1_655  S
C2705      C2706   1.396       .  A
C2705      H2712   1.084       .  S
C2706      S2708   1.804       .  S
S2708      H2709   1.407       .  S
C2713      C2714   1.411       .  A
C2713      C2718   1.420   1_556  A
C2714      C2715   1.405   1_556  A
C2714      H2723   1.083       .  S
C2715      C2716   1.411       .  A
C2715      S2719   1.805   1_554  S
C2716      C2717   1.399       .  A
C2717      C2718   1.399       .  A
C2717      H2724   1.085       .  S
C2718      S2720   1.803       .  S
S2719      H2722   1.404   1_556  S
S2720      H2721   1.408       .  S
C2725      C2726   1.399       .  A
C2725      C2730   1.410       .  A
C2726      C2727   1.400       .  A
C2726      H2735   1.084       .  S
C2727      C2728   1.415       .  A
C2727      S2731   1.799       .  S
C2728      C2729   1.405       .  A
C2729      C2730   1.401       .  A
C2729      H2736   1.084       .  S
C2730      S2732   1.803       .  S
S2731      H2734   1.406       .  S
S2732      H2733   1.407       .  S
C2737      C2738   1.401       .  A
C2737      C2742   1.409       .  A
C2738      C2739   1.400       .  A
C2738      H2747   1.084       .  S
C2739      C2740   1.412       .  A
C2739      S2743   1.803       .  S
C2740      C2741   1.402       .  A
C2741      C2742   1.398       .  A
C2741      H2748   1.084       .  S
C2742      S2744   1.803       .  S
S2743      H2746   1.404       .  S
S2744      H2745   1.407       .  S
C2749      C2754   1.410       .  A
C2750      C2751   1.400       .  A
C2750      H2759   1.084       .  S
C2751      C2752   1.413       .  A
C2751      S2755   1.803       .  S
C2753      C2754   1.401       .  A
C2753      H2760   1.084       .  S
C2754      S2756   1.804       .  S
S2755      H2758   1.406       .  S
S2756      H2757   1.406       .  S
C2761      C2762   1.402       .  A
C2761      C2766   1.409       .  A
C2762      C2763   1.403       .  A
C2762      H2771   1.084       .  S
C2763      C2764   1.415       .  A
C2763      S2767   1.798       .  S
C2764      C2765   1.405       .  A
C2765      C2766   1.397       .  A
C2765      H2772   1.084       .  S
C2766      S2768   1.803       .  S
S2767      H2770   1.406       .  S
S2768      H2769   1.407       .  S
C2773      C2774   1.405       .  A
C2773      C2778   1.417       .  A
C2774      C2775   1.401       .  A
C2774      H2783   1.084       .  S
C2775      C2776   1.421       .  A
C2775      S2779   1.801       .  S
C2776      C2777   1.408       .  A
C2777      C2778   1.399       .  A
C2777      H2784   1.084       .  S
C2778      S2780   1.804       .  S
S2779      H2782   1.408       .  S
S2780      H2781   1.408       .  S
C2785      C2786   1.401       .  A
C2785      C2790   1.415       .  A
C2786      C2787   1.399       .  A
C2786      H2795   1.084       .  S
C2787      C2788   1.420       .  A
C2787      S2791   1.804       .  S
C2788      C2789   1.408       .  A
C2789      C2790   1.402       .  A
C2789      H2796   1.084       .  S
C2790      S2792   1.802       .  S
S2791      H2794   1.408       .  S
C2797      C2798   1.404       .  A
C2797      C2802   1.411       .  A
C2798      C2799   1.404       .  A
C2798      H2807   1.084       .  S
C2799      C2800   1.412       .  A
C2799      S2803   1.801       .  S
C2800      C2801   1.402       .  A
C2801      C2802   1.396       .  A
C2801      H2808   1.084       .  S
C2802      S2804   1.803       .  S
S2803      H2806   1.405       .  S
S2804      H2805   1.407       .  S
C2809      C2810   1.402       .  A
C2810      H2819   1.084       .  S
C2811      C2812   1.413   1_545  A
C2812      C2813   1.400       .  A
C2813      C2814   1.399       .  A
C2813      H2820   1.084       .  S
C2814      S2816   1.798       .  S
S2816      H2817   1.407       .  S
C2821      C2822   1.409       .  A
C2821      C2826   1.419       .  A
C2822      C2823   1.399       .  A
C2822      H2831   1.082       .  S
C2823      C2824   1.412       .  A
C2823      S2827   1.810       .  S
C2824      C2825   1.407       .  A
C2825      C2826   1.405       .  A
C2825      H2832   1.084       .  S
C2826      S2828   1.802       .  S
S2828      H2829   1.407       .  S
C2833      C2834   1.406       .  A
C2833      C2838   1.415       .  A
C2834      C2835   1.401       .  A
C2834      H2843   1.084       .  S
C2835      C2836   1.413       .  A
C2835      S2839   1.804       .  S
C2836      C2837   1.404       .  A
C2837      C2838   1.397       .  A
C2837      H2844   1.084       .  S
C2838      S2840   1.801       .  S
S2839      H2842   1.407       .  S
S2840      H2841   1.407       .  S
C2845      C2846   1.403       .  A
C2845      C2850   1.413       .  A
C2846      C2847   1.400       .  A
C2846      H2855   1.084       .  S
C2847      C2848   1.413       .  A
C2847      S2851   1.804       .  S
C2848      C2849   1.404       .  A
C2849      C2850   1.407       .  A
C2849      H2856   1.084       .  S
C2850      S2852   1.800       .  S
S2851      H2854   1.407       .  S
S2852      H2853   1.406       .  S
C2857      C2858   1.403       .  A
C2857      C2862   1.414       .  A
C2858      C2859   1.400       .  A
C2858      H2867   1.084       .  S
C2859      C2860   1.417       .  A
C2859      S2863   1.804       .  S
C2860      C2861   1.404       .  A
C2861      C2862   1.401       .  A
C2861      H2868   1.084       .  S
C2862      S2864   1.795       .  S
S2864      H2865   1.398       .  S
C2869      C2870   1.405       .  A
C2869      C2874   1.419       .  A
C2870      C2871   1.400       .  A
C2870      H2879   1.084       .  S
C2871      C2872   1.418       .  A
C2871      S2875   1.793       .  S
C2872      C2873   1.408       .  A
C2873      C2874   1.401       .  A
C2873      H2880   1.084       .  S
C2874      S2876   1.803       .  S
S2875      H2878   1.406       .  S
S2876      H2877   1.408       .  S
C2881      C2882   1.400       .  A
C2881      C2886   1.411       .  A
C2882      C2883   1.400       .  A
C2882      H2891   1.084       .  S
C2883      S2887   1.804       .  S
C2885      C2886   1.397       .  A
C2886      S2888   1.800       .  S
S2888      H2889   1.404   1_565  S
C2893      C2894   1.405       .  A
C2893      C2898   1.417       .  A
C2894      C2895   1.389       .  A
C2894      H2903   1.084       .  S
C2895      C2896   1.414       .  A
C2895      S2899   1.804       .  S
C2896      C2897   1.407       .  A
C2897      C2898   1.409       .  A
C2897      H2904   1.084       .  S
C2898      S2900   1.800       .  S
S2899      H2902   1.405       .  S
S2900      H2901   1.407       .  S
C2905      C2906   1.404       .  A
C2905      C2910   1.415       .  A
C2906      C2907   1.400       .  A
C2906      H2915   1.084       .  S
C2907      C2908   1.410       .  A
C2907      S2911   1.803       .  S
C2908      C2909   1.405       .  A
C2909      C2910   1.408       .  A
C2909      H2916   1.084       .  S
C2910      S2912   1.800       .  S
S2911      H2914   1.407       .  S
S2912      H2913   1.406       .  S
C2917      C2918   1.405       .  A
C2917      C2922   1.417       .  A
C2918      C2919   1.401       .  A
C2918      H2927   1.083       .  S
C2919      C2920   1.412       .  A
C2919      S2923   1.808       .  S
C2920      C2921   1.402       .  A
C2921      C2922   1.395       .  A
C2921      H2928   1.084       .  S
C2922      S2924   1.802       .  S
S2923      H2926   1.407       .  S
S2924      H2925   1.407       .  S
C2930      C2931   1.394       .  A
C2931      C2932   1.411       .  A
C2931      S2935   1.799       .  S
C2932      C2933   1.401       .  A
C2933      C2934   1.401       .  A
C2933      H2940   1.083       .  S
S2935      H2938   1.403       .  S
S2936      H2937   1.407       .  S
C2941      C2942   1.406       .  A
C2941      C2946   1.416       .  A
C2942      C2943   1.401       .  A
C2942      H2951   1.083       .  S
C2943      C2944   1.411       .  A
C2943      S2947   1.809       .  S
C2944      C2945   1.405       .  A
C2945      C2946   1.398       .  A
C2945      H2952   1.084       .  S
C2946      S2948   1.803       .  S
S2947      H2950   1.407       .  S
S2948      H2949   1.406       .  S
C2953      C2954   1.401       .  A
C2953      C2958   1.414       .  A
C2954      C2955   1.394       .  A
C2954      H2963   1.084       .  S
C2955      S2959   1.803       .  S
C2957      C2958   1.399       .  A
C2958      S2960   1.801       .  S
S2960      H2961   1.405       .  S
C2965      C2966   1.402       .  A
C2965      C2970   1.412       .  A
C2966      C2967   1.403       .  A
C2966      H2975   1.082       .  S
C2967      C2968   1.423       .  A
C2967      S2971   1.812       .  S
C2968      C2969   1.408       .  A
C2969      C2970   1.404       .  A
C2969      H2976   1.081       .  S
C2970      S2972   1.802       .  S
S2971      H2974   1.407       .  S
S2972      H2973   1.407       .  S
