geometry optimzed in LAMMPS
_audit_creation_date              2020-12-01 
_audit_creation_method            'lammps2cif' 
_symmetry_space_group_name_H-M    'P1' 
_symmetry_Int_Tables_number       1 
_symmetry_cell_setting            triclinic 
loop_ 
_symmetry_equiv_pos_as_xyz 
  x,y,z 
_cell_length_a                    34.71574652 
_cell_length_b                    34.71767747151685 
_cell_length_c                    27.873486524530634 
_cell_angle_alpha                 89.98824537458817 
_cell_angle_beta                  90.02517408080766 
_cell_angle_gamma                 120.04551897658749 
loop_ 
_atom_site_label 
_atom_site_type_symbol 
_atom_site_fract_x 
_atom_site_fract_y 
_atom_site_fract_z 
_atom_site_charge 
O1          O  0.35734779  0.16619046  0.41131874    -0.83100
O2          O  0.30125645  0.12847621  0.33321530    -0.80100
C3          C  0.26285969  0.11587577  0.34977689     1.00400
O4          O  0.25268490  0.14362178  0.36491433    -0.80200
O5          O  0.26235410  0.22182370  0.39935505    -0.82800
C6          C  0.27793107  0.22706797  0.44150583     1.04900
O7          O  0.31708932  0.23559128  0.44883947    -0.75600
O8          O  0.39414746  0.23514063  0.43673211    -0.75700
C9          C  0.37788477  0.19395834  0.44427020     1.04900
O10         O  0.42286310  0.23516121  0.34938070    -0.83100
O11         O  0.36118164  0.20195989  0.27498360    -0.80100
C12         C  0.32623049  0.19291787  0.25203172     1.00400
O13         O  0.29085758  0.18491331  0.27369699    -0.80200
O14         O  0.30519476  0.26361859  0.30984454    -0.82800
C15         C  0.31890640  0.29726085  0.33602402     1.04900
O16         O  0.33897719  0.30018677  0.37493846    -0.75600
O17         O  0.41543674  0.29413617  0.35592332    -0.75700
C18         C  0.43919781  0.27695077  0.34697849     1.04800
Cr19       Cr  0.35910403  0.18537706  0.34358890     1.93700
Cr20       Cr  0.28194166  0.20453981  0.33868997     1.93200
Cr21       Cr  0.36441084  0.26313981  0.40058131     1.39100
O22         O  0.33513308  0.21787031  0.36060175    -1.20800
O23         O  0.18058906  0.34311625  0.58964254    -0.83100
O24         O  0.14290348  0.28696920  0.66766471    -0.80100
C25         C  0.13026187  0.24861459  0.65094248     1.00400
O26         O  0.15797977  0.23843923  0.63571762    -0.80200
O27         O  0.23616164  0.24801210  0.60136159    -0.82800
C28         C  0.24141283  0.26361270  0.55923199     1.04900
O29         O  0.24995953  0.30277905  0.55195145    -0.75600
O30         O  0.24951808  0.37981910  0.56414387    -0.75700
C31         C  0.20832628  0.36361187  0.55666441     1.04900
O32         O  0.24962227  0.40854323  0.65158231    -0.83100
O33         O  0.21646887  0.34679516  0.72593370    -0.80100
C34         C  0.20735548  0.31179026  0.74880467     1.00400
O35         O  0.19922364  0.27641902  0.72704269    -0.80200
O36         O  0.27791265  0.29073388  0.69093942    -0.82800
C37         C  0.31159144  0.30449795  0.66482011     1.04900
O38         O  0.31455523  0.32460312  0.62592151    -0.75600
O39         O  0.30857401  0.40109151  0.64493580    -0.75700
C40         C  0.29141457  0.42486922  0.65390741     1.04800
Cr41       Cr  0.19982459  0.34480039  0.65734258     1.93700
Cr42       Cr  0.21886725  0.26757065  0.66203354     1.93200
Cr43       Cr  0.27753011  0.35007050  0.60026160     1.39100
O44         O  0.23226627  0.32080195  0.64022711    -1.20800
O45         O  0.32914555  0.14020803  0.74469477    -0.83100
O46         O  0.34748674  0.19638218  0.66672764    -0.80100
C47         C  0.37332992  0.23478218  0.68331501     1.00400
O48         O  0.41127891  0.24497742  0.69846215    -0.80200
O49         O  0.47993074  0.23538531  0.73275130    -0.82800
C50         C  0.46965053  0.21979591  0.77489599     1.04900
O51         O  0.43893998  0.18065251  0.78221240    -0.75600
O52         O  0.36138555  0.10351358  0.77003263    -0.75700
C53         C  0.33644574  0.11971531  0.77761826     1.04900
O54         O  0.33263660  0.07482236  0.68260847    -0.83100
O55         O  0.36102672  0.13659997  0.60830699    -0.80100
C56         C  0.38691140  0.17160260  0.58541191     1.00400
O57         O  0.41429946  0.20695862  0.60714262    -0.80200
O58         O  0.47872989  0.19263140  0.64314686    -0.82800
C59         C  0.49870693  0.17894195  0.66927276     1.04900
O60         O  0.48163026  0.15890183  0.70821247    -0.75600
O61         O  0.39912200  0.08241211  0.68917195    -0.75700
C62         C  0.35815429  0.05857925  0.68020690     1.04800
Cr63       Cr  0.34655710  0.13855839  0.67694824     1.93700
Cr64       Cr  0.44293657  0.21582007  0.67211033     1.93200
Cr65       Cr  0.41913686  0.13336970  0.73389160     1.39100
O66         O  0.40307441  0.16259978  0.69396513    -1.20800
O67         O  0.18358725  0.31723944  0.92290412    -0.83100
O68         O  0.16523245  0.35508403  0.00080083    -0.80100
C69         C  0.13947025  0.36766464  0.98409112     1.00400
O70         O  0.10154434  0.33990860  0.96886462    -0.80200
O71         O  0.03279620  0.26166152  0.93466558    -0.82800
C72         C  0.04309630  0.25638493  0.89253269     1.04900
O73         O  0.07374209  0.24789325  0.88525327    -0.75600
O74         O  0.15121787  0.24827461  0.89750608    -0.75700
C75         C  0.17625291  0.28944851  0.88996749     1.04900
O76         O  0.17989487  0.24828486  0.98499367    -0.83100
O77         O  0.15147990  0.28165177  0.05926280    -0.80100
C78         C  0.12563181  0.29082634  0.08209225     1.00400
O79         O  0.09838248  0.29890967  0.06028024    -0.80200
O80         O  0.03391189  0.22011946  0.02432894    -0.82800
C81         C  0.01386737  0.18643235  0.99822717     1.04900
O82         O  0.03092186  0.18341487  0.95930469    -0.75600
O83         O  0.11337932  0.18935793  0.97834715    -0.75700
C84         C  0.15434116  0.20649524  0.98733104     1.04800
Cr85       Cr  0.16607055  0.29813835  0.99062797     1.93700
Cr86       Cr  0.06977499  0.27909980  0.99530660     1.93200
Cr87       Cr  0.09344691  0.22036152  0.93361686     1.39100
O88         O  0.10956866  0.26567962  0.97353129    -1.20800
O89         O  0.33187725  0.16889918  0.07801159    -0.83100
O90         O  0.36972968  0.15055719  0.00008634    -0.80100
C91         C  0.38233514  0.12480986  0.01677383     1.00400
O92         O  0.35459317  0.08689111  0.03201064    -0.80200
O93         O  0.27634608  0.01813812  0.06621625    -0.82800
C94         C  0.27101766  0.02842593  0.10833883     1.04900
O95         O  0.26250984  0.05906144  0.11560082    -0.75600
O96         O  0.26289459  0.13652478  0.10335249    -0.75700
C97         C  0.30406599  0.16158798  0.11091140     1.04900
O98         O  0.26292357  0.16520345  0.01592271    -0.83100
O99         O  0.29624873  0.13677286  0.94166425    -0.80100
C100        C  0.30540892  0.11092668  0.91881435     1.00400
O101        O  0.31353385  0.08369567  0.94059871    -0.80200
O102        O  0.23478284  0.01920733  0.97653211    -0.82800
C103        C  0.20108424  0.49917800  0.00260489     1.04900
O104        O  0.19805322  0.01623968  0.04151636    -0.75600
O105        O  0.20399588  0.09868778  0.02246932    -0.75700
C106        C  0.22113483  0.13965341  0.01353522     1.04800
Cr107      Cr  0.31277374  0.15137771  0.01028206     1.93700
Cr108      Cr  0.29376483  0.05509742  0.00557108     1.93200
Cr109      Cr  0.23499158  0.07875836  0.06722227     1.39100
O110        O  0.28032634  0.09487961  0.02735011    -1.20800
O111        O  0.15466866  0.31471436  0.25628637    -0.83100
O112        O  0.21076585  0.33316706  0.33434396    -0.80100
C113        C  0.24916452  0.35901494  0.31777307     1.00400
O114        O  0.25935726  0.39696443  0.30265136    -0.80200
O115        O  0.24972264  0.46550834  0.26818538    -0.82800
C116        C  0.23420315  0.45513778  0.22601542     1.04900
O117        O  0.19506524  0.42442147  0.21865553    -0.75600
O118        O  0.11793977  0.34685702  0.23077636    -0.75700
C119        C  0.13421109  0.32196407  0.22327795     1.04900
O120        O  0.08917032  0.31819561  0.31821784    -0.83100
O121        O  0.15088772  0.34668239  0.39262321    -0.80100
C122        C  0.18586467  0.37261421  0.41555325     1.00400
O123        O  0.22121562  0.40003384  0.39385612    -0.80200
O124        O  0.20683017  0.46436888  0.35766555    -0.82800
C125        C  0.19316631  0.48430652  0.33144191     1.04900
O126        O  0.17317741  0.46717275  0.29248141    -0.75600
O127        O  0.09669362  0.38464066  0.31149719    -0.75700
C128        C  0.07289211  0.34368717  0.32053288     1.04800
Cr129      Cr  0.15292266  0.33217377  0.32400016     1.93700
Cr130      Cr  0.23011257  0.42859174  0.32885523     1.93200
Cr131      Cr  0.14771509  0.40464779  0.26687865     1.39100
O132        O  0.17692989  0.38866874  0.30693641    -1.20800
C133        C  0.26979533  0.00250164  0.14893575    -0.11000
C134        C  0.25901137  0.48105364  0.18545796    -0.12600
C135        C  0.13053695  0.30374064  0.17591923    -0.11000
C136        C  0.12857187  0.29505451  0.13363035    -0.12600
C137        C  0.17008564  0.45361944  0.99156542    -0.11000
C138        C  0.15296080  0.41403258  0.98556105    -0.12600
C139        C  0.19321126  0.15864877  0.00383777    -0.11000
C140        C  0.17332412  0.17856219  0.99703393    -0.12600
C141        C  0.42871208  0.13831083  0.01526819    -0.11000
C142        C  0.46830068  0.15543822  0.00924981    -0.12600
C143        C  0.49566876  0.24452114  0.81545348    -0.11000
C144        C  0.01717300  0.25521937  0.85194818    -0.12600
C145        C  0.30957850  0.11387115  0.86728248    -0.11000
C146        C  0.31822768  0.11591632  0.82498515    -0.12600
C147        C  0.20321779  0.31056430  0.80033849    -0.11000
C148        C  0.19453977  0.30391682  0.84262786    -0.12600
C149        C  0.04423919  0.19340326  0.65826196    -0.11000
C150        C  0.08385466  0.21576342  0.65233720    -0.12600
C151        C  0.33914403  0.01164642  0.67044823    -0.11000
C152        C  0.31930238  0.47182726  0.66360606    -0.12600
C153        C  0.34267454  0.29005887  0.67581794    -0.11000
C154        C  0.35986368  0.26767011  0.68182374    -0.12600
C155        C  0.18709412  0.36955160  0.46708115    -0.11000
C156        C  0.19378105  0.36743989  0.50935337    -0.12600
C157        C  0.02595844  0.32465885  0.33031125    -0.11000
C158        C  0.48614661  0.30481330  0.33721118    -0.12600
C159        C  0.28204285  0.34553204  0.31919823    -0.11000
C160        C  0.30443167  0.32832799  0.32509902    -0.12600
C161        C  0.20760971  0.02985534  0.34238252    -0.11000
C162        C  0.22997349  0.06947387  0.34831839    -0.12600
C163        C  0.32507176  0.18870861  0.20051148    -0.11000
C164        C  0.31849669  0.17995900  0.15822931    -0.10800
C165        C  0.25316267  0.22816150  0.48207854    -0.11000
C166        C  0.24248204  0.23885637  0.51862881    -0.12600
C167        C  0.38170661  0.17947061  0.49160776    -0.11000
C168        C  0.38383538  0.17283493  0.53388773    -0.12600
O169        O  0.35734781  0.66619052  0.41131879    -0.83100
O170        O  0.30125638  0.62847609  0.33321534    -0.80100
C171        C  0.26285964  0.61587569  0.34977692     1.00400
O172        O  0.25268486  0.64362167  0.36491439    -0.80200
O173        O  0.26235409  0.72182366  0.39935505    -0.82800
C174        C  0.27793107  0.72706799  0.44150584     1.04900
O175        O  0.31708936  0.73559138  0.44883944    -0.75600
O176        O  0.39414750  0.73514069  0.43673213    -0.75700
C177        C  0.37788487  0.69395853  0.44427026     1.04900
O178        O  0.42286302  0.73516114  0.34938070    -0.83100
O179        O  0.36118161  0.70195986  0.27498358    -0.80100
C180        C  0.32623041  0.69291771  0.25203178     1.00400
O181        O  0.29085758  0.68491332  0.27369698    -0.80200
O182        O  0.30519471  0.76361850  0.30984459    -0.82800
C183        C  0.31890641  0.79726086  0.33602405     1.04900
O184        O  0.33897714  0.80018672  0.37493847    -0.75600
O185        O  0.41543675  0.79413615  0.35592330    -0.75700
C186        C  0.43919780  0.77695068  0.34697844     1.04800
Cr187      Cr  0.35910397  0.68537703  0.34358894     1.93700
Cr188      Cr  0.28194167  0.70453978  0.33869003     1.93200
Cr189      Cr  0.36441087  0.76313986  0.40058128     1.39100
O190        O  0.33513311  0.71787036  0.36060172    -1.20800
O191        O  0.18058903  0.84311628  0.58964258    -0.83100
O192        O  0.14290358  0.78696927  0.66766473    -0.80100
C193        C  0.13026186  0.74861466  0.65094248     1.00400
O194        O  0.15797972  0.73843919  0.63571762    -0.80200
O195        O  0.23616155  0.74801196  0.60136158    -0.82800
C196        C  0.24141271  0.76361254  0.55923197     1.04900
O197        O  0.24995945  0.80277893  0.55195147    -0.75600
O198        O  0.24951804  0.87981901  0.56414391    -0.75700
C199        C  0.20832617  0.86361165  0.55666442     1.04900
O200        O  0.24962229  0.90854323  0.65158225    -0.83100
O201        O  0.21646891  0.84679518  0.72593367    -0.80100
C202        C  0.20735547  0.81179020  0.74880465     1.00400
O203        O  0.19922362  0.77641900  0.72704266    -0.80200
O204        O  0.27791256  0.79073370  0.69093941    -0.82800
C205        C  0.31159142  0.80449781  0.66482014     1.04900
O206        O  0.31455514  0.82460302  0.62592153    -0.75600
O207        O  0.30857403  0.90109152  0.64493583    -0.75700
C208        C  0.29141466  0.92486931  0.65390739     1.04800
Cr209      Cr  0.19982463  0.84480040  0.65734260     1.93700
Cr210      Cr  0.21886717  0.76757052  0.66203354     1.93200
Cr211      Cr  0.27753005  0.85007042  0.60026165     1.39100
O212        O  0.23226621  0.82080184  0.64022711    -1.20800
O213        O  0.32914548  0.64020789  0.74469478    -0.83100
O214        O  0.34748672  0.69638206  0.66672766    -0.80100
C215        C  0.37332994  0.73478218  0.68331502     1.00400
O216        O  0.41127890  0.74497737  0.69846217    -0.80200
O217        O  0.47993070  0.73538521  0.73275127    -0.82800
C218        C  0.46965050  0.71979589  0.77489611     1.04900
O219        O  0.43894002  0.68065250  0.78221250    -0.75600
O220        O  0.36138545  0.60351343  0.77003261    -0.75700
C221        C  0.33644574  0.61971532  0.77761826     1.04900
O222        O  0.33263651  0.57482221  0.68260852    -0.83100
O223        O  0.36102663  0.63659982  0.60830693    -0.80100
C224        C  0.38691137  0.67160255  0.58541191     1.00400
O225        O  0.41429939  0.70695851  0.60714261    -0.80200
O226        O  0.47872982  0.69263131  0.64314687    -0.82800
C227        C  0.49870689  0.67894183  0.66927275     1.04900
O228        O  0.48163021  0.65890172  0.70821246    -0.75600
O229        O  0.39912197  0.58241207  0.68917199    -0.75700
C230        C  0.35815428  0.55857928  0.68020695     1.04800
Cr231      Cr  0.34655702  0.63855824  0.67694823     1.93700
Cr232      Cr  0.44293654  0.71582002  0.67211033     1.93200
Cr233      Cr  0.41913685  0.63336969  0.73389165     1.39100
O234        O  0.40307437  0.66259970  0.69396511    -1.20800
O235        O  0.18358731  0.81723945  0.92290417    -0.83100
O236        O  0.16523242  0.85508392  0.00080084    -0.80100
C237        C  0.13947025  0.86766457  0.98409111     1.00400
O238        O  0.10154436  0.83990859  0.96886458    -0.80200
O239        O  0.03279623  0.76166167  0.93466552    -0.82800
C240        C  0.04309629  0.75638505  0.89253257     1.04900
O241        O  0.07374203  0.74789324  0.88525321    -0.75600
O242        O  0.15121783  0.74827464  0.89750607    -0.75700
C243        C  0.17625290  0.78944856  0.88996746     1.04900
O244        O  0.17989491  0.74828485  0.98499359    -0.83100
O245        O  0.15147982  0.78165167  0.05926277    -0.80100
C246        C  0.12563173  0.79082620  0.08209223     1.00400
O247        O  0.09838253  0.79890974  0.06028020    -0.80200
O248        O  0.03391178  0.72011947  0.02432894    -0.82800
C249        C  0.01386738  0.68643233  0.99822710     1.04900
O250        O  0.03092193  0.68341493  0.95930468    -0.75600
O251        O  0.11337930  0.68935793  0.97834715    -0.75700
C252        C  0.15434117  0.70649521  0.98733100     1.04800
Cr253      Cr  0.16607055  0.79813828  0.99062793     1.93700
Cr254      Cr  0.06977496  0.77909981  0.99530658     1.93200
Cr255      Cr  0.09344687  0.72036151  0.93361682     1.39100
O256        O  0.10956864  0.76567961  0.97353122    -1.20800
O257        O  0.33187728  0.66889927  0.07801161    -0.83100
O258        O  0.36972976  0.65055725  0.00008636    -0.80100
C259        C  0.38233517  0.62480981  0.01677383     1.00400
O260        O  0.35459314  0.58689114  0.03201071    -0.80200
O261        O  0.27634610  0.51813829  0.06621620    -0.82800
C262        C  0.27101773  0.52842610  0.10833887     1.04900
O263        O  0.26250989  0.55906156  0.11560083    -0.75600
O264        O  0.26289462  0.63652493  0.10335249    -0.75700
C265        C  0.30406595  0.66158791  0.11091146     1.04900
O266        O  0.26292361  0.66520356  0.01592267    -0.83100
O267        O  0.29624878  0.63677296  0.94166418    -0.80100
C268        C  0.30540895  0.61092678  0.91881435     1.00400
O269        O  0.31353392  0.58369579  0.94059875    -0.80200
O270        O  0.23478281  0.51920739  0.97653207    -0.82800
C271        C  0.20108427  0.99917803  0.00260493     1.04900
O272        O  0.19805322  0.51623971  0.04151631    -0.75600
O273        O  0.20399593  0.59868788  0.02246930    -0.75700
C274        C  0.22113493  0.63965364  0.01353521     1.04800
Cr275      Cr  0.31277383  0.65137786  0.01028202     1.93700
Cr276      Cr  0.29376481  0.55509753  0.00557110     1.93200
Cr277      Cr  0.23499163  0.57875847  0.06722224     1.39100
O278        O  0.28032642  0.59487978  0.02735011    -1.20800
O279        O  0.15466873  0.81471439  0.25628636    -0.83100
O280        O  0.21076582  0.83316711  0.33434400    -0.80100
C281        C  0.24916449  0.85901492  0.31777306     1.00400
O282        O  0.25935727  0.89696447  0.30265139    -0.80200
O283        O  0.24972255  0.96550833  0.26818534    -0.82800
C284        C  0.23420305  0.95513760  0.22601532     1.04900
O285        O  0.19506519  0.92442135  0.21865552    -0.75600
O286        O  0.11793969  0.84685693  0.23077641    -0.75700
C287        C  0.13421107  0.82196405  0.22327798     1.04900
O288        O  0.08917027  0.81819553  0.31821785    -0.83100
O289        O  0.15088768  0.84668240  0.39262320    -0.80100
C290        C  0.18586456  0.87261403  0.41555323     1.00400
O291        O  0.22121558  0.90003387  0.39385616    -0.80200
O292        O  0.20683016  0.96436889  0.35766555    -0.82800
C293        C  0.19316628  0.98430651  0.33144192     1.04900
O294        O  0.17317736  0.96717264  0.29248140    -0.75600
O295        O  0.09669359  0.88464063  0.31149718    -0.75700
C296        C  0.07289207  0.84368706  0.32053289     1.04800
Cr297      Cr  0.15292263  0.83217368  0.32400016     1.93700
Cr298      Cr  0.23011251  0.92859171  0.32885523     1.93200
Cr299      Cr  0.14771502  0.90464771  0.26687866     1.39100
O300        O  0.17692982  0.88866865  0.30693641    -1.20800
C301        C  0.26979532  0.50250168  0.14893571    -0.11000
C302        C  0.25901127  0.98105354  0.18545791    -0.12600
C303        C  0.13053688  0.80374054  0.17591927    -0.11000
C304        C  0.12857184  0.79505445  0.13363039    -0.12600
C305        C  0.17008559  0.95361944  0.99156541    -0.11000
C306        C  0.15296088  0.91403263  0.98556107    -0.12600
C307        C  0.19321135  0.65864888  0.00383775    -0.11000
C308        C  0.17332411  0.67856227  0.99703389    -0.12600
C309        C  0.42871212  0.63831088  0.01526821    -0.11000
C310        C  0.46830074  0.65543828  0.00924980    -0.12600
C311        C  0.49566870  0.74452108  0.81545341    -0.11000
C312        C  0.01717291  0.75521922  0.85194821    -0.12600
C313        C  0.30957838  0.61387107  0.86728242    -0.11000
C314        C  0.31822758  0.61591625  0.82498514    -0.12600
C315        C  0.20321785  0.81056435  0.80033845    -0.11000
C316        C  0.19453990  0.80391705  0.84262787    -0.12600
C317        C  0.04423916  0.69340321  0.65826198    -0.11000
C318        C  0.08385469  0.71576355  0.65233724    -0.12600
C319        C  0.33914394  0.51164633  0.67044823    -0.11000
C320        C  0.31930246  0.97182721  0.66360601    -0.12600
C321        C  0.34267453  0.79005886  0.67581795    -0.11000
C322        C  0.35986367  0.76766996  0.68182376    -0.12600
C323        C  0.18709410  0.86955154  0.46708118    -0.11000
C324        C  0.19378101  0.86743983  0.50935336    -0.12600
C325        C  0.02595844  0.82465885  0.33031126    -0.11000
C326        C  0.48614658  0.80481325  0.33721117    -0.12600
C327        C  0.28204274  0.84553198  0.31919819    -0.11000
C328        C  0.30443161  0.82832793  0.32509900    -0.12600
C329        C  0.20760974  0.52985531  0.34238254    -0.11000
C330        C  0.22997341  0.56947379  0.34831835    -0.12600
C331        C  0.32507170  0.68870855  0.20051144    -0.11000
C332        C  0.31849674  0.67995912  0.15822933    -0.10800
C333        C  0.25316264  0.72816138  0.48207847    -0.11000
C334        C  0.24248207  0.73885639  0.51862877    -0.12600
C335        C  0.38170662  0.67947065  0.49160778    -0.11000
C336        C  0.38383539  0.67283495  0.53388771    -0.12600
O337        O  0.85734798  0.16619047  0.41131870    -0.83100
O338        O  0.80125663  0.12847622  0.33321528    -0.80100
C339        C  0.76285990  0.11587577  0.34977689     1.00400
O340        O  0.75268505  0.14362179  0.36491432    -0.80200
O341        O  0.76235428  0.22182373  0.39935504    -0.82800
C342        C  0.77793122  0.22706796  0.44150589     1.04900
O343        O  0.81708941  0.23559125  0.44883951    -0.75600
O344        O  0.89414748  0.23514064  0.43673208    -0.75700
C345        C  0.87788478  0.19395835  0.44427019     1.04900
O346        O  0.92286318  0.23516125  0.34938076    -0.83100
O347        O  0.86118174  0.20195989  0.27498357    -0.80100
C348        C  0.82623049  0.19291788  0.25203175     1.00400
O349        O  0.79085765  0.18491327  0.27369703    -0.80200
O350        O  0.80519486  0.26361858  0.30984453    -0.82800
C351        C  0.81890649  0.29726086  0.33602403     1.04900
O352        O  0.83897710  0.30018670  0.37493855    -0.75600
O353        O  0.91543680  0.29413620  0.35592327    -0.75700
C354        C  0.93919789  0.27695079  0.34697849     1.04800
Cr355      Cr  0.85910419  0.18537709  0.34358887     1.93700
Cr356      Cr  0.78194177  0.20453981  0.33869001     1.93200
Cr357      Cr  0.86441091  0.26313983  0.40058128     1.39100
O358        O  0.83513320  0.21787031  0.36060174    -1.20800
O359        O  0.68058902  0.34311624  0.58964255    -0.83100
O360        O  0.64290337  0.28696912  0.66766468    -0.80100
C361        C  0.63026191  0.24861450  0.65094246     1.00400
O362        O  0.65797972  0.23843922  0.63571753    -0.80200
O363        O  0.73616161  0.24801208  0.60136160    -0.82800
C364        C  0.74141295  0.26361274  0.55923205     1.04900
O365        O  0.74995950  0.30277904  0.55195145    -0.75600
O366        O  0.74951805  0.37981909  0.56414387    -0.75700
C367        C  0.70832624  0.36361183  0.55666442     1.04900
O368        O  0.74962216  0.40854325  0.65158231    -0.83100
O369        O  0.71646878  0.34679516  0.72593371    -0.80100
C370        C  0.70735544  0.31179027  0.74880468     1.00400
O371        O  0.69922359  0.27641903  0.72704269    -0.80200
O372        O  0.77791255  0.29073384  0.69093939    -0.82800
C373        C  0.81159145  0.30449805  0.66482014     1.04900
O374        O  0.81455516  0.32460314  0.62592151    -0.75600
O375        O  0.80857390  0.40109150  0.64493585    -0.75700
C376        C  0.79141449  0.42486923  0.65390742     1.04800
Cr377      Cr  0.69982447  0.34480039  0.65734258     1.93700
Cr378      Cr  0.71886719  0.26757064  0.66203352     1.93200
Cr379      Cr  0.77753003  0.35007050  0.60026163     1.39100
O380        O  0.73226614  0.32080194  0.64022709    -1.20800
O381        O  0.82914549  0.14020802  0.74469475    -0.83100
O382        O  0.84748662  0.19638224  0.66672762    -0.80100
C383        C  0.87332977  0.23478217  0.68331497     1.00400
O384        O  0.91127884  0.24497740  0.69846209    -0.80200
O385        O  0.97993072  0.23538538  0.73275125    -0.82800
C386        C  0.96965065  0.21979604  0.77489600     1.04900
O387        O  0.93894002  0.18065256  0.78221238    -0.75600
O388        O  0.86138557  0.10351364  0.77003262    -0.75700
C389        C  0.83644571  0.11971533  0.77761828     1.04900
O390        O  0.83263649  0.07482235  0.68260847    -0.83100
O391        O  0.86102666  0.13659997  0.60830697    -0.80100
C392        C  0.88691142  0.17160259  0.58541189     1.00400
O393        O  0.91429938  0.20695861  0.60714262    -0.80200
O394        O  0.97872983  0.19263141  0.64314688    -0.82800
C395        C  0.99870695  0.17894197  0.66927274     1.04900
O396        O  0.98163014  0.15890180  0.70821248    -0.75600
O397        O  0.89912191  0.08241212  0.68917198    -0.75700
C398        C  0.85815414  0.05857924  0.68020690     1.04800
Cr399      Cr  0.84655706  0.13855843  0.67694824     1.93700
Cr400      Cr  0.94293653  0.21582006  0.67211031     1.93200
Cr401      Cr  0.91913686  0.13336974  0.73389164     1.39100
O402        O  0.90307440  0.16259980  0.69396515    -1.20800
O403        O  0.68358723  0.31723945  0.92290410    -0.83100
O404        O  0.66523239  0.35508398  0.00080084    -0.80100
C405        C  0.63947028  0.36766463  0.98409114     1.00400
O406        O  0.60154426  0.33990860  0.96886467    -0.80200
O407        O  0.53279622  0.26166146  0.93466552    -0.82800
C408        C  0.54309641  0.25638487  0.89253273     1.04900
O409        O  0.57374220  0.24789329  0.88525323    -0.75600
O410        O  0.65121797  0.24827460  0.89750619    -0.75700
C411        C  0.67625294  0.28944851  0.88996752     1.04900
O412        O  0.67989489  0.24828485  0.98499368    -0.83100
O413        O  0.65147989  0.28165180  0.05926277    -0.80100
C414        C  0.62563175  0.29082635  0.08209226     1.00400
O415        O  0.59838244  0.29890967  0.06028026    -0.80200
O416        O  0.53391191  0.22011944  0.02432896    -0.82800
C417        C  0.51386734  0.18643235  0.99822718     1.04900
O418        O  0.53092196  0.18341491  0.95930465    -0.75600
O419        O  0.61337935  0.18935788  0.97834722    -0.75700
C420        C  0.65434119  0.20649523  0.98733109     1.04800
Cr421      Cr  0.66607051  0.29813833  0.99062793     1.93700
Cr422      Cr  0.56977492  0.27909978  0.99530664     1.93200
Cr423      Cr  0.59344697  0.22036151  0.93361688     1.39100
O424        O  0.60956862  0.26567962  0.97353127    -1.20800
O425        O  0.83187726  0.16889908  0.07801178    -0.83100
O426        O  0.86972983  0.15055727  0.00008653    -0.80100
C427        C  0.88233509  0.12480980  0.01677393     1.00400
O428        O  0.85459324  0.08689112  0.03201073    -0.80200
O429        O  0.77634602  0.01813813  0.06621628    -0.82800
C430        C  0.77101765  0.02842592  0.10833886     1.04900
O431        O  0.76250968  0.05906135  0.11560088    -0.75600
O432        O  0.76289454  0.13652478  0.10335251    -0.75700
C433        C  0.80406594  0.16158798  0.11091151     1.04900
O434        O  0.76292360  0.16520345  0.01592280    -0.83100
O435        O  0.79624891  0.13677293  0.94166441    -0.80100
C436        C  0.80540915  0.11092671  0.91881443     1.00400
O437        O  0.81353381  0.08369557  0.94059876    -0.80200
O438        O  0.73478282  0.01920730  0.97653211    -0.82800
C439        C  0.70108417  0.49917799  0.00260489     1.04900
O440        O  0.69805322  0.01623966  0.04151633    -0.75600
O441        O  0.70399583  0.09868783  0.02246919    -0.75700
C442        C  0.72113482  0.13965341  0.01353520     1.04800
Cr443      Cr  0.81277384  0.15137773  0.01028218     1.93700
Cr444      Cr  0.79376485  0.05509740  0.00557116     1.93200
Cr445      Cr  0.73499155  0.07875836  0.06722220     1.39100
O446        O  0.78032643  0.09487963  0.02735017    -1.20800
O447        O  0.65466860  0.31471437  0.25628640    -0.83100
O448        O  0.71076584  0.33316710  0.33434389    -0.80100
C449        C  0.74916455  0.35901494  0.31777300     1.00400
O450        O  0.75935734  0.39696439  0.30265131    -0.80200
O451        O  0.74972271  0.46550832  0.26818538    -0.82800
C452        C  0.73420315  0.45513777  0.22601544     1.04900
O453        O  0.69506528  0.42442146  0.21865558    -0.75600
O454        O  0.61793972  0.34685700  0.23077629    -0.75700
C455        C  0.63421101  0.32196405  0.22327791     1.04900
O456        O  0.58917027  0.31819561  0.31821784    -0.83100
O457        O  0.65088773  0.34668250  0.39262322    -0.80100
C458        C  0.68586485  0.37261423  0.41555320     1.00400
O459        O  0.72121568  0.40003381  0.39385608    -0.80200
O460        O  0.70683024  0.46436881  0.35766555    -0.82800
C461        C  0.69316648  0.48430653  0.33144192     1.04900
O462        O  0.67317743  0.46717274  0.29248147    -0.75600
O463        O  0.59669366  0.38464070  0.31149712    -0.75700
C464        C  0.57289212  0.34368715  0.32053286     1.04800
Cr465      Cr  0.65292259  0.33217378  0.32400015     1.93700
Cr466      Cr  0.73011258  0.42859167  0.32885521     1.93200
Cr467      Cr  0.64771511  0.40464783  0.26687861     1.39100
O468        O  0.67692981  0.38866873  0.30693641    -1.20800
C469        C  0.76979541  0.00250163  0.14893577    -0.11000
C470        C  0.75901133  0.48105361  0.18545796    -0.12600
C471        C  0.63053710  0.30374068  0.17591923    -0.11000
C472        C  0.62857187  0.29505451  0.13363034    -0.12600
C473        C  0.67008560  0.45361940  0.99156545    -0.11000
C474        C  0.65296087  0.41403256  0.98556104    -0.12600
C475        C  0.69321129  0.15864885  0.00383774    -0.11000
C476        C  0.67332419  0.17856219  0.99703394    -0.12600
C477        C  0.92871215  0.13831074  0.01526821    -0.11000
C478        C  0.96830053  0.15543818  0.00924984    -0.12600
C479        C  0.99566868  0.24452117  0.81545338    -0.11000
C480        C  0.51717290  0.25521921  0.85194812    -0.12600
C481        C  0.80957846  0.11387116  0.86728258    -0.11000
C482        C  0.81822768  0.11591633  0.82498518    -0.12600
C483        C  0.70321787  0.31056433  0.80033851    -0.11000
C484        C  0.69453979  0.30391683  0.84262789    -0.12600
C485        C  0.54423927  0.19340328  0.65826195    -0.11000
C486        C  0.58385459  0.21576330  0.65233725    -0.12600
C487        C  0.83914403  0.01164644  0.67044823    -0.11000
C488        C  0.81930233  0.47182727  0.66360606    -0.12600
C489        C  0.84267433  0.29005881  0.67581786    -0.11000
C490        C  0.85986368  0.26767014  0.68182370    -0.12600
C491        C  0.68709426  0.36955164  0.46708115    -0.11000
C492        C  0.69378094  0.36743990  0.50935339    -0.12600
C493        C  0.52595844  0.32465879  0.33031126    -0.11000
C494        C  0.98614666  0.30481338  0.33721117    -0.12600
C495        C  0.78204286  0.34553193  0.31919825    -0.11000
C496        C  0.80443169  0.32832790  0.32509901    -0.12600
C497        C  0.70760977  0.02985533  0.34238257    -0.11000
C498        C  0.72997357  0.06947388  0.34831836    -0.12600
C499        C  0.82507181  0.18870864  0.20051155    -0.11000
C500        C  0.81849658  0.17995901  0.15822940    -0.10800
C501        C  0.75316269  0.22816150  0.48207854    -0.11000
C502        C  0.74248208  0.23885635  0.51862883    -0.12600
C503        C  0.88170663  0.17947066  0.49160774    -0.11000
C504        C  0.88383547  0.17283491  0.53388770    -0.12600
O505        O  0.85734799  0.66619053  0.41131875    -0.83100
O506        O  0.80125655  0.62847611  0.33321532    -0.80100
C507        C  0.76285985  0.61587569  0.34977692     1.00400
O508        O  0.75268501  0.64362167  0.36491439    -0.80200
O509        O  0.76235427  0.72182369  0.39935504    -0.82800
C510        C  0.77793122  0.72706798  0.44150590     1.04900
O511        O  0.81708945  0.73559135  0.44883948    -0.75600
O512        O  0.89414751  0.73514071  0.43673210    -0.75700
C513        C  0.87788488  0.69395854  0.44427025     1.04900
O514        O  0.92286310  0.73516118  0.34938075    -0.83100
O515        O  0.86118171  0.70195985  0.27498355    -0.80100
C516        C  0.82623041  0.69291771  0.25203180     1.00400
O517        O  0.79085764  0.68491328  0.27369702    -0.80200
O518        O  0.80519481  0.76361850  0.30984459    -0.82800
C519        C  0.81890650  0.79726087  0.33602406     1.04900
O520        O  0.83897705  0.80018665  0.37493856    -0.75600
O521        O  0.91543681  0.79413618  0.35592325    -0.75700
C522        C  0.93919788  0.77695071  0.34697843     1.04800
Cr523      Cr  0.85910414  0.68537706  0.34358890     1.93700
Cr524      Cr  0.78194178  0.70453977  0.33869006     1.93200
Cr525      Cr  0.86441094  0.76313988  0.40058125     1.39100
O526        O  0.83513323  0.71787036  0.36060171    -1.20800
O527        O  0.68058900  0.84311627  0.58964258    -0.83100
O528        O  0.64290347  0.78696918  0.66766468    -0.80100
C529        C  0.63026191  0.74861456  0.65094244     1.00400
O530        O  0.65797967  0.73843917  0.63571752    -0.80200
O531        O  0.73616156  0.74801198  0.60136158    -0.82800
C532        C  0.74141284  0.76361260  0.55923203     1.04900
O533        O  0.74995940  0.80277895  0.55195147    -0.75600
O534        O  0.74951801  0.87981898  0.56414392    -0.75700
C535        C  0.70832619  0.86361169  0.55666444     1.04900
O536        O  0.74962219  0.90854324  0.65158229    -0.83100
O537        O  0.71646880  0.84679520  0.72593374    -0.80100
C538        C  0.70735547  0.81179036  0.74880466     1.00400
O539        O  0.69922357  0.77641904  0.72704266    -0.80200
O540        O  0.77791248  0.79073369  0.69093941    -0.82800
C541        C  0.81159136  0.80449777  0.66482019     1.04900
O542        O  0.81455508  0.82460307  0.62592155    -0.75600
O543        O  0.80857393  0.90109152  0.64493590    -0.75700
C544        C  0.79141458  0.92486934  0.65390743     1.04800
Cr545      Cr  0.69982451  0.84480041  0.65734259     1.93700
Cr546      Cr  0.71886712  0.76757053  0.66203353     1.93200
Cr547      Cr  0.77752997  0.85007042  0.60026170     1.39100
O548        O  0.73226608  0.82080183  0.64022709    -1.20800
O549        O  0.82914542  0.64020788  0.74469477    -0.83100
O550        O  0.84748660  0.69638212  0.66672764    -0.80100
C551        C  0.87332979  0.73478219  0.68331498     1.00400
O552        O  0.91127883  0.74497734  0.69846212    -0.80200
O553        O  0.97993067  0.73538525  0.73275129    -0.82800
C554        C  0.96965057  0.71979590  0.77489616     1.04900
O555        O  0.93893998  0.68065248  0.78221249    -0.75600
O556        O  0.86138544  0.60351345  0.77003258    -0.75700
C557        C  0.83644570  0.61971532  0.77761828     1.04900
O558        O  0.83263640  0.57482220  0.68260852    -0.83100
O559        O  0.86102658  0.63659983  0.60830690    -0.80100
C560        C  0.88691139  0.67160256  0.58541189     1.00400
O561        O  0.91429931  0.70695851  0.60714262    -0.80200
O562        O  0.97872976  0.69263129  0.64314687    -0.82800
C563        C  0.99870690  0.67894183  0.66927273     1.04900
O564        O  0.98163007  0.65890169  0.70821247    -0.75600
O565        O  0.89912188  0.58241207  0.68917199    -0.75700
C566        C  0.85815412  0.55857927  0.68020694     1.04800
Cr567      Cr  0.84655697  0.63855828  0.67694823     1.93700
Cr568      Cr  0.94293651  0.71582002  0.67211033     1.93200
Cr569      Cr  0.91913680  0.63336966  0.73389167     1.39100
O570        O  0.90307435  0.66259970  0.69396513    -1.20800
O571        O  0.68358727  0.81723945  0.92290417    -0.83100
O572        O  0.66523234  0.85508387  0.00080086    -0.80100
C573        C  0.63947027  0.86766455  0.98409112     1.00400
O574        O  0.60154428  0.83990857  0.96886463    -0.80200
O575        O  0.53279623  0.76166156  0.93466549    -0.82800
C576        C  0.54309640  0.75638502  0.89253259     1.04900
O577        O  0.57374215  0.74789329  0.88525319    -0.75600
O578        O  0.65121795  0.74827462  0.89750615    -0.75700
C579        C  0.67625294  0.78944854  0.88996753     1.04900
O580        O  0.67989493  0.74828484  0.98499363    -0.83100
O581        O  0.65147981  0.78165169  0.05926274    -0.80100
C582        C  0.62563168  0.79082622  0.08209224     1.00400
O583        O  0.59838251  0.79890976  0.06028023    -0.80200
O584        O  0.53391184  0.72011950  0.02432894    -0.82800
C585        C  0.51386737  0.68643236  0.99822719     1.04900
O586        O  0.53092202  0.68341499  0.95930466    -0.75600
O587        O  0.61337932  0.68935788  0.97834728    -0.75700
C588        C  0.65434119  0.70649519  0.98733108     1.04800
Cr589      Cr  0.66607051  0.79813828  0.99062792     1.93700
Cr590      Cr  0.56977490  0.77909979  0.99530661     1.93200
Cr591      Cr  0.59344695  0.72036151  0.93361688     1.39100
O592        O  0.60956861  0.76567962  0.97353122    -1.20800
O593        O  0.83187728  0.66889916  0.07801181    -0.83100
O594        O  0.86972990  0.65055732  0.00008654    -0.80100
C595        C  0.88233510  0.62480973  0.01677393     1.00400
O596        O  0.85459317  0.58689112  0.03201078    -0.80200
O597        O  0.77634607  0.51813830  0.06621627    -0.82800
C598        C  0.77101767  0.52842608  0.10833893     1.04900
O599        O  0.76250975  0.55906150  0.11560088    -0.75600
O600        O  0.76289456  0.63652494  0.10335250    -0.75700
C601        C  0.80406591  0.66158791  0.11091157     1.04900
O602        O  0.76292363  0.66520358  0.01592278    -0.83100
O603        O  0.79624898  0.63677307  0.94166433    -0.80100
C604        C  0.80540911  0.61092683  0.91881442     1.00400
O605        O  0.81353390  0.58369572  0.94059877    -0.80200
O606        O  0.73478275  0.51920735  0.97653206    -0.82800
C607        C  0.70108422  0.99917802  0.00260492     1.04900
O608        O  0.69805321  0.51623969  0.04151630    -0.75600
O609        O  0.70399588  0.59868793  0.02246917    -0.75700
C610        C  0.72113492  0.63965364  0.01353518     1.04800
Cr611      Cr  0.81277393  0.65137790  0.01028214     1.93700
Cr612      Cr  0.79376480  0.55509749  0.00557117     1.93200
Cr613      Cr  0.73499159  0.57875849  0.06722218     1.39100
O614        O  0.78032648  0.59487980  0.02735016    -1.20800
O615        O  0.65466867  0.81471440  0.25628638    -0.83100
O616        O  0.71076581  0.83316715  0.33434393    -0.80100
C617        C  0.74916453  0.85901492  0.31777299     1.00400
O618        O  0.75935735  0.89696443  0.30265134    -0.80200
O619        O  0.74972263  0.96550830  0.26818535    -0.82800
C620        C  0.73420306  0.95513759  0.22601534     1.04900
O621        O  0.69506522  0.92442135  0.21865558    -0.75600
O622        O  0.61793963  0.84685692  0.23077634    -0.75700
C623        C  0.63421098  0.82196404  0.22327794     1.04900
O624        O  0.58917023  0.81819553  0.31821785    -0.83100
O625        O  0.65088768  0.84668251  0.39262319    -0.80100
C626        C  0.68586474  0.87261405  0.41555318     1.00400
O627        O  0.72121563  0.90003384  0.39385612    -0.80200
O628        O  0.70683023  0.96436882  0.35766555    -0.82800
C629        C  0.69316645  0.98430651  0.33144194     1.04900
O630        O  0.67317738  0.96717263  0.29248146    -0.75600
O631        O  0.59669363  0.88464066  0.31149711    -0.75700
C632        C  0.57289209  0.84368704  0.32053287     1.04800
Cr633      Cr  0.65292256  0.83217369  0.32400015     1.93700
Cr634      Cr  0.73011252  0.92859164  0.32885521     1.93200
Cr635      Cr  0.64771503  0.90464774  0.26687862     1.39100
O636        O  0.67692975  0.88866864  0.30693642    -1.20800
C637        C  0.76979536  0.50250168  0.14893574    -0.11000
C638        C  0.75901123  0.98105350  0.18545792    -0.12600
C639        C  0.63053703  0.80374058  0.17591927    -0.11000
C640        C  0.62857184  0.79505445  0.13363038    -0.12600
C641        C  0.67008555  0.95361940  0.99156544    -0.11000
C642        C  0.65296095  0.91403261  0.98556106    -0.12600
C643        C  0.69321137  0.65864896  0.00383771    -0.11000
C644        C  0.67332418  0.67856227  0.99703390    -0.12600
C645        C  0.92871219  0.63831078  0.01526823    -0.11000
C646        C  0.96830056  0.65543822  0.00924975    -0.12600
C647        C  0.99566861  0.74452108  0.81545333    -0.11000
C648        C  0.51717288  0.75521917  0.85194819    -0.12600
C649        C  0.80957829  0.61387111  0.86728251    -0.11000
C650        C  0.81822758  0.61591628  0.82498517    -0.12600
C651        C  0.70321785  0.81056430  0.80033852    -0.11000
C652        C  0.69453988  0.80391701  0.84262790    -0.12600
C653        C  0.54423923  0.69340323  0.65826197    -0.11000
C654        C  0.58385462  0.71576343  0.65233728    -0.12600
C655        C  0.83914394  0.51164635  0.67044823    -0.11000
C656        C  0.81930242  0.97182723  0.66360602    -0.12600
C657        C  0.84267436  0.79005887  0.67581790    -0.11000
C658        C  0.85986370  0.76767001  0.68182372    -0.12600
C659        C  0.68709425  0.86955158  0.46708117    -0.11000
C660        C  0.69378097  0.86743990  0.50935337    -0.12600
C661        C  0.52595844  0.82465879  0.33031127    -0.11000
C662        C  0.98614663  0.80481333  0.33721117    -0.12600
C663        C  0.78204274  0.84553187  0.31919821    -0.11000
C664        C  0.80443163  0.82832785  0.32509898    -0.12600
C665        C  0.70760980  0.52985531  0.34238259    -0.11000
C666        C  0.72997348  0.56947380  0.34831832    -0.12600
C667        C  0.82507175  0.68870857  0.20051152    -0.11000
C668        C  0.81849663  0.67995913  0.15822942    -0.10800
C669        C  0.75316265  0.72816138  0.48207847    -0.11000
C670        C  0.74248212  0.73885638  0.51862878    -0.12600
C671        C  0.88170665  0.67947070  0.49160777    -0.11000
C672        C  0.88383547  0.67283494  0.53388767    -0.12600
loop_ 
_geom_bond_atom_site_label_1 
_geom_bond_atom_site_label_2 
_geom_bond_distance 
_geom_bond_site_symmetry_2 
_ccdc_geom_bond_type 
O1          Cr19   1.993       .  S
O1            C9   1.262       .  A
O2          Cr19   2.011       .  S
O2            C3   1.264       .  A
C3            O4   1.254       .  A
C3          C162   1.435       .  S
O4          Cr20   1.972       .  S
O5          Cr20   2.023       .  S
O5            C6   1.268       .  A
C6            O7   1.255       .  A
C6          C165   1.433       .  S
O7          Cr21   1.962       .  S
O8          Cr21   2.007       .  S
O8            C9   1.264       .  A
C9          C167   1.442       .  S
O10         Cr19   2.020       .  S
O10          C18   1.268       .  A
O11         Cr19   1.988       .  S
O11          C12   1.264       .  A
C12          O13   1.268       .  A
C12         C163   1.442       .  S
O13         Cr20   2.013       .  S
O14         Cr20   1.961       .  S
O14          C15   1.252       .  A
C15          O16   1.265       .  A
C15         C160   1.432       .  S
O16         Cr21   2.020       .  S
O17         Cr21   1.984       .  S
O17          C18   1.262       .  A
C18         C158   1.445       .  S
Cr19         O22   1.769       .  S
Cr20         O22   1.772       .  S
Cr21         O22   1.773       .  S
O23         Cr41   1.993       .  S
O23          C31   1.262       .  A
O24         Cr41   2.011       .  S
O24          C25   1.264       .  A
C25          O26   1.254       .  A
C25         C150   1.435       .  S
O26         Cr42   1.972       .  S
O27         Cr42   2.023       .  S
O27          C28   1.268       .  A
C28          O29   1.255       .  A
C28         C166   1.433       .  S
O29         Cr43   1.962       .  S
O30         Cr43   2.008       .  S
O30          C31   1.265       .  A
C31         C156   1.442       .  S
O32         Cr41   2.020       .  S
O32          C40   1.268       .  A
O33         Cr41   1.988       .  S
O33          C34   1.264       .  A
C34          O35   1.268       .  A
C34         C147   1.442       .  S
O35         Cr42   2.013       .  S
O36         Cr42   1.961       .  S
O36          C37   1.252       .  A
C37          O38   1.265       .  A
C37         C153   1.432       .  S
O38         Cr43   2.020       .  S
O39         Cr43   1.984       .  S
O39          C40   1.262       .  A
C40         C152   1.445       .  S
Cr41         O44   1.769       .  S
Cr42         O44   1.772       .  S
Cr43         O44   1.773       .  S
O45         Cr63   1.993       .  S
O45          C53   1.262       .  A
O46         Cr63   2.012       .  S
O46          C47   1.264       .  A
C47          O48   1.254       .  A
C47         C154   1.435       .  S
O48         Cr64   1.972       .  S
O49         Cr64   2.023       .  S
O49          C50   1.268       .  A
C50          O51   1.255       .  A
C50         C143   1.433       .  S
O51         Cr65   1.962       .  S
O52         Cr65   2.007       .  S
O52          C53   1.264       .  A
C53         C146   1.441       .  S
O54         Cr63   2.021       .  S
O54          C62   1.268       .  A
O55         Cr63   1.988       .  S
O55          C56   1.264       .  A
C56          O57   1.268       .  A
C56         C168   1.442       .  S
O57         Cr64   2.014       .  S
O58         Cr64   1.961       .  S
O58          C59   1.252       .  A
C59          O60   1.265       .  A
C59         C485   1.432       .  S
O60         Cr65   2.020       .  S
O61         Cr65   1.984       .  S
O61          C62   1.261       .  A
C62         C151   1.445       .  S
Cr63         O66   1.769       .  S
Cr64         O66   1.772       .  S
Cr65         O66   1.773       .  S
O67         Cr85   1.992       .  S
O67          C75   1.262       .  A
O68         Cr85   2.012   1_554  S
O68          C69   1.264   1_554  A
C69          O70   1.254       .  A
C69         C138   1.434       .  S
O70         Cr86   1.971       .  S
O71         Cr86   2.023       .  S
O71          C72   1.268       .  A
C72          O73   1.255       .  A
C72         C144   1.433       .  S
O73         Cr87   1.963       .  S
O74         Cr87   2.007       .  S
O74          C75   1.264       .  A
C75         C148   1.441       .  S
O76         Cr85   2.021       .  S
O76          C84   1.268       .  A
O77         Cr85   1.989   1_554  S
O77          C78   1.264       .  A
C78          O79   1.268       .  A
C78         C136   1.442       .  S
O79         Cr86   2.013   1_554  S
O80         Cr86   1.961   1_554  S
O80          C81   1.252   1_554  A
C81          O82   1.265       .  A
C81         C478   1.432   1_456  S
O82         Cr87   2.021       .  S
O83         Cr87   1.984       .  S
O83          C84   1.261       .  A
C84         C140   1.445       .  S
Cr85         O88   1.769       .  S
Cr86         O88   1.772       .  S
Cr87         O88   1.773       .  S
O89        Cr107   1.992       .  S
O89          C97   1.262       .  A
O90        Cr107   2.012       .  S
O90          C91   1.264       .  A
C91          O92   1.254       .  A
C91         C141   1.435       .  S
O92        Cr108   1.971       .  S
O93        Cr108   2.023       .  S
O93          C94   1.268       .  A
C94          O95   1.255       .  A
C94         C133   1.433       .  S
O95        Cr109   1.962       .  S
O96        Cr109   2.007       .  S
O96          C97   1.264       .  A
C97         C164   1.441       .  S
O98        Cr107   2.020       .  S
O98         C106   1.268       .  A
O99        Cr107   1.988   1_556  S
O99         C100   1.264       .  A
C100        O101   1.268       .  A
C100        C145   1.442       .  S
O101       Cr108   2.014   1_556  S
O102       Cr108   1.961   1_556  S
O102        C271   1.251   1_546  A
C103        O270   1.251   1_554  A
C103        O272   1.265       .  A
C103        C137   1.432   1_554  S
O104       Cr109   2.020       .  S
O104        C271   1.265   1_545  A
O105       Cr109   1.984       .  S
O105        C106   1.261       .  A
C106        C139   1.445       .  S
Cr107       O110   1.769       .  S
Cr108       O110   1.772       .  S
Cr109       O110   1.773       .  S
O111       Cr129   1.993       .  S
O111        C119   1.262       .  A
O112       Cr129   2.012       .  S
O112        C113   1.264       .  A
C113        O114   1.254       .  A
C113        C159   1.435       .  S
O114       Cr130   1.972       .  S
O115       Cr130   2.023       .  S
O115        C116   1.268       .  A
C116        O117   1.255       .  A
C116        C134   1.433       .  S
O117       Cr131   1.963       .  S
O118       Cr131   2.007       .  S
O118        C119   1.264       .  A
C119        C135   1.442       .  S
O120       Cr129   2.021       .  S
O120        C128   1.268       .  A
O121       Cr129   1.988       .  S
O121        C122   1.264       .  A
C122        O123   1.268       .  A
C122        C155   1.442       .  S
O123       Cr130   2.013       .  S
O124       Cr130   1.961       .  S
O124        C125   1.252       .  A
C125        O126   1.265       .  A
C125        C329   1.432       .  S
O126       Cr131   2.020       .  S
O127       Cr131   1.984       .  S
O127        C128   1.261       .  A
C128        C157   1.445       .  S
Cr129       O132   1.769       .  S
Cr130       O132   1.772       .  S
Cr131       O132   1.773       .  S
C133        C302   1.205   1_545  T
C134        C301   1.205       .  T
C135        C136   1.210       .  T
C137        C138   1.205       .  T
C139        C140   1.212   1_554  T
C141        C142   1.205       .  T
C142        C417   1.432   1_554  S
C143        C480   1.205       .  T
C144        C479   1.205   1_455  T
C145        C146   1.210       .  T
C147        C148   1.210       .  T
C149        C395   1.432   1_455  S
C149        C150   1.205       .  T
C151        C320   1.212   1_545  T
C152        C319   1.212       .  T
C153        C154   1.205       .  T
C155        C156   1.210       .  T
C157        C494   1.212   1_455  T
C158        C493   1.212       .  T
C159        C160   1.205       .  T
C161        C293   1.432   1_545  S
C161        C162   1.205       .  T
C163        C164   1.210       .  T
C165        C166   1.205       .  T
C167        C168   1.210       .  T
O169       Cr187   1.993       .  S
O169        C177   1.262       .  A
O170       Cr187   2.011       .  S
O170        C171   1.264       .  A
C171        O172   1.254       .  A
C171        C330   1.435       .  S
O172       Cr188   1.972       .  S
O173       Cr188   2.023       .  S
O173        C174   1.268       .  A
C174        O175   1.255       .  A
C174        C333   1.433       .  S
O175       Cr189   1.962       .  S
O176       Cr189   2.007       .  S
O176        C177   1.264       .  A
C177        C335   1.442       .  S
O178       Cr187   2.020       .  S
O178        C186   1.268       .  A
O179       Cr187   1.988       .  S
O179        C180   1.264       .  A
C180        O181   1.268       .  A
C180        C331   1.442       .  S
O181       Cr188   2.013       .  S
O182       Cr188   1.961       .  S
O182        C183   1.252       .  A
C183        O184   1.265       .  A
C183        C328   1.432       .  S
O184       Cr189   2.020       .  S
O185       Cr189   1.984       .  S
O185        C186   1.262       .  A
C186        C326   1.445       .  S
Cr187       O190   1.769       .  S
Cr188       O190   1.772       .  S
Cr189       O190   1.773       .  S
O191       Cr209   1.993       .  S
O191        C199   1.262       .  A
O192       Cr209   2.011       .  S
O192        C193   1.264       .  A
C193        O194   1.254       .  A
C193        C318   1.435       .  S
O194       Cr210   1.972       .  S
O195       Cr210   2.023       .  S
O195        C196   1.268       .  A
C196        O197   1.255       .  A
C196        C334   1.433       .  S
O197       Cr211   1.962       .  S
O198       Cr211   2.008       .  S
O198        C199   1.265       .  A
C199        C324   1.442       .  S
O200       Cr209   2.020       .  S
O200        C208   1.268       .  A
O201       Cr209   1.988       .  S
O201        C202   1.264       .  A
C202        O203   1.268       .  A
C202        C315   1.442       .  S
O203       Cr210   2.013       .  S
O204       Cr210   1.961       .  S
O204        C205   1.252       .  A
C205        O206   1.265       .  A
C205        C321   1.432       .  S
O206       Cr211   2.020       .  S
O207       Cr211   1.984       .  S
O207        C208   1.262       .  A
C208        C320   1.445       .  S
Cr209       O212   1.769       .  S
Cr210       O212   1.772       .  S
Cr211       O212   1.773       .  S
O213       Cr231   1.993       .  S
O213        C221   1.262       .  A
O214       Cr231   2.012       .  S
O214        C215   1.264       .  A
C215        O216   1.254       .  A
C215        C322   1.435       .  S
O216       Cr232   1.972       .  S
O217       Cr232   2.023       .  S
O217        C218   1.268       .  A
C218        O219   1.255       .  A
C218        C311   1.433       .  S
O219       Cr233   1.962       .  S
O220       Cr233   2.007       .  S
O220        C221   1.264       .  A
C221        C314   1.441       .  S
O222       Cr231   2.021       .  S
O222        C230   1.268       .  A
O223       Cr231   1.988       .  S
O223        C224   1.264       .  A
C224        O225   1.268       .  A
C224        C336   1.442       .  S
O225       Cr232   2.014       .  S
O226       Cr232   1.961       .  S
O226        C227   1.252       .  A
C227        O228   1.265       .  A
C227        C653   1.432       .  S
O228       Cr233   2.020       .  S
O229       Cr233   1.984       .  S
O229        C230   1.261       .  A
C230        C319   1.445       .  S
Cr231       O234   1.769       .  S
Cr232       O234   1.772       .  S
Cr233       O234   1.773       .  S
O235       Cr253   1.992       .  S
O235        C243   1.262       .  A
O236       Cr253   2.012   1_554  S
O236        C237   1.264   1_554  A
C237        O238   1.254       .  A
C237        C306   1.434       .  S
O238       Cr254   1.971       .  S
O239       Cr254   2.023       .  S
O239        C240   1.268       .  A
C240        O241   1.255       .  A
C240        C312   1.433       .  S
O241       Cr255   1.963       .  S
O242       Cr255   2.007       .  S
O242        C243   1.264       .  A
C243        C316   1.441       .  S
O244       Cr253   2.021       .  S
O244        C252   1.268       .  A
O245       Cr253   1.989   1_554  S
O245        C246   1.264       .  A
C246        O247   1.268       .  A
C246        C304   1.442       .  S
O247       Cr254   2.013   1_554  S
O248       Cr254   1.961   1_554  S
O248        C249   1.252   1_554  A
C249        O250   1.265       .  A
C249        C646   1.432   1_456  S
O250       Cr255   2.021       .  S
O251       Cr255   1.984       .  S
O251        C252   1.261       .  A
C252        C308   1.445       .  S
Cr253       O256   1.769       .  S
Cr254       O256   1.772       .  S
Cr255       O256   1.773       .  S
O257       Cr275   1.992       .  S
O257        C265   1.262       .  A
O258       Cr275   2.012       .  S
O258        C259   1.264       .  A
C259        O260   1.254       .  A
C259        C309   1.435       .  S
O260       Cr276   1.971       .  S
O261       Cr276   2.023       .  S
O261        C262   1.268       .  A
C262        O263   1.255       .  A
C262        C301   1.433       .  S
O263       Cr277   1.962       .  S
O264       Cr277   2.007       .  S
O264        C265   1.264       .  A
C265        C332   1.441       .  S
O266       Cr275   2.020       .  S
O266        C274   1.268       .  A
O267       Cr275   1.988   1_556  S
O267        C268   1.264       .  A
C268        O269   1.268       .  A
C268        C313   1.442       .  S
O269       Cr276   2.014   1_556  S
O270       Cr276   1.961   1_556  S
C271        C305   1.432   1_554  S
O272       Cr277   2.020       .  S
O273       Cr277   1.984       .  S
O273        C274   1.262       .  A
C274        C307   1.445       .  S
Cr275       O278   1.769       .  S
Cr276       O278   1.772       .  S
Cr277       O278   1.773       .  S
O279       Cr297   1.993       .  S
O279        C287   1.262       .  A
O280       Cr297   2.012       .  S
O280        C281   1.264       .  A
C281        O282   1.254       .  A
C281        C327   1.435       .  S
O282       Cr298   1.972       .  S
O283       Cr298   2.023       .  S
O283        C284   1.268       .  A
C284        O285   1.255       .  A
C284        C302   1.433       .  S
O285       Cr299   1.963       .  S
O286       Cr299   2.007       .  S
O286        C287   1.264       .  A
C287        C303   1.442       .  S
O288       Cr297   2.021       .  S
O288        C296   1.268       .  A
O289       Cr297   1.988       .  S
O289        C290   1.264       .  A
C290        O291   1.268       .  A
C290        C323   1.442       .  S
O291       Cr298   2.013       .  S
O292       Cr298   1.961       .  S
O292        C293   1.252       .  A
C293        O294   1.265       .  A
O294       Cr299   2.020       .  S
O295       Cr299   1.984       .  S
O295        C296   1.261       .  A
C296        C325   1.445       .  S
Cr297       O300   1.769       .  S
Cr298       O300   1.772       .  S
Cr299       O300   1.773       .  S
C303        C304   1.210       .  T
C305        C306   1.205       .  T
C307        C308   1.212   1_554  T
C309        C310   1.205       .  T
C310        C585   1.432   1_554  S
C311        C648   1.205       .  T
C312        C647   1.205   1_455  T
C313        C314   1.210       .  T
C315        C316   1.210       .  T
C317        C563   1.432   1_455  S
C317        C318   1.205       .  T
C321        C322   1.205       .  T
C323        C324   1.210       .  T
C325        C662   1.212   1_455  T
C326        C661   1.212       .  T
C327        C328   1.205       .  T
C329        C330   1.205       .  T
C331        C332   1.210       .  T
C333        C334   1.205       .  T
C335        C336   1.210       .  T
O337       Cr355   1.993       .  S
O337        C345   1.262       .  A
O338       Cr355   2.011       .  S
O338        C339   1.264       .  A
C339        O340   1.254       .  A
C339        C498   1.435       .  S
O340       Cr356   1.972       .  S
O341       Cr356   2.023       .  S
O341        C342   1.268       .  A
C342        O343   1.255       .  A
C342        C501   1.433       .  S
O343       Cr357   1.962       .  S
O344       Cr357   2.007       .  S
O344        C345   1.264       .  A
C345        C503   1.442       .  S
O346       Cr355   2.020       .  S
O346        C354   1.268       .  A
O347       Cr355   1.988       .  S
O347        C348   1.264       .  A
C348        O349   1.268       .  A
C348        C499   1.442       .  S
O349       Cr356   2.013       .  S
O350       Cr356   1.961       .  S
O350        C351   1.252       .  A
C351        O352   1.265       .  A
C351        C496   1.432       .  S
O352       Cr357   2.020       .  S
O353       Cr357   1.984       .  S
O353        C354   1.262       .  A
C354        C494   1.445       .  S
Cr355       O358   1.769       .  S
Cr356       O358   1.772       .  S
Cr357       O358   1.773       .  S
O359       Cr377   1.993       .  S
O359        C367   1.262       .  A
O360       Cr377   2.011       .  S
O360        C361   1.264       .  A
C361        O362   1.254       .  A
C361        C486   1.435       .  S
O362       Cr378   1.972       .  S
O363       Cr378   2.023       .  S
O363        C364   1.268       .  A
C364        O365   1.255       .  A
C364        C502   1.433       .  S
O365       Cr379   1.962       .  S
O366       Cr379   2.008       .  S
O366        C367   1.265       .  A
C367        C492   1.442       .  S
O368       Cr377   2.020       .  S
O368        C376   1.268       .  A
O369       Cr377   1.988       .  S
O369        C370   1.264       .  A
C370        O371   1.268       .  A
C370        C483   1.442       .  S
O371       Cr378   2.013       .  S
O372       Cr378   1.961       .  S
O372        C373   1.252       .  A
C373        O374   1.265       .  A
C373        C489   1.432       .  S
O374       Cr379   2.020       .  S
O375       Cr379   1.984       .  S
O375        C376   1.262       .  A
C376        C488   1.445       .  S
Cr377       O380   1.769       .  S
Cr378       O380   1.772       .  S
Cr379       O380   1.773       .  S
O381       Cr399   1.993       .  S
O381        C389   1.262       .  A
O382       Cr399   2.012       .  S
O382        C383   1.264       .  A
C383        O384   1.254       .  A
C383        C490   1.435       .  S
O384       Cr400   1.972       .  S
O385       Cr400   2.023       .  S
O385        C386   1.268       .  A
C386        O387   1.255       .  A
C386        C479   1.433       .  S
O387       Cr401   1.962       .  S
O388       Cr401   2.007       .  S
O388        C389   1.264       .  A
C389        C482   1.441       .  S
O390       Cr399   2.021       .  S
O390        C398   1.268       .  A
O391       Cr399   1.988       .  S
O391        C392   1.264       .  A
C392        O393   1.268       .  A
C392        C504   1.442       .  S
O393       Cr400   2.014       .  S
O394       Cr400   1.961       .  S
O394        C395   1.252       .  A
C395        O396   1.265       .  A
O396       Cr401   2.020       .  S
O397       Cr401   1.984       .  S
O397        C398   1.261       .  A
C398        C487   1.445       .  S
Cr399       O402   1.769       .  S
Cr400       O402   1.772       .  S
Cr401       O402   1.773       .  S
O403       Cr421   1.992       .  S
O403        C411   1.262       .  A
O404       Cr421   2.012   1_554  S
O404        C405   1.264   1_554  A
C405        O406   1.254       .  A
C405        C474   1.434       .  S
O406       Cr422   1.971       .  S
O407       Cr422   2.023       .  S
O407        C408   1.268       .  A
C408        O409   1.255       .  A
C408        C480   1.433       .  S
O409       Cr423   1.963       .  S
O410       Cr423   2.007       .  S
O410        C411   1.264       .  A
C411        C484   1.441       .  S
O412       Cr421   2.021       .  S
O412        C420   1.268       .  A
O413       Cr421   1.989   1_554  S
O413        C414   1.264       .  A
C414        O415   1.268       .  A
C414        C472   1.442       .  S
O415       Cr422   2.013   1_554  S
O416       Cr422   1.961   1_554  S
O416        C417   1.252   1_554  A
C417        O418   1.265       .  A
O418       Cr423   2.021       .  S
O419       Cr423   1.984       .  S
O419        C420   1.261       .  A
C420        C476   1.445       .  S
Cr421       O424   1.769       .  S
Cr422       O424   1.772       .  S
Cr423       O424   1.773       .  S
O425       Cr443   1.992       .  S
O425        C433   1.262       .  A
O426       Cr443   2.012       .  S
O426        C427   1.264       .  A
C427        O428   1.254       .  A
C427        C477   1.435       .  S
O428       Cr444   1.971       .  S
O429       Cr444   2.023       .  S
O429        C430   1.268       .  A
C430        O431   1.255       .  A
C430        C469   1.433       .  S
O431       Cr445   1.962       .  S
O432       Cr445   2.007       .  S
O432        C433   1.264       .  A
C433        C500   1.441       .  S
O434       Cr443   2.020       .  S
O434        C442   1.268       .  A
O435       Cr443   1.988   1_556  S
O435        C436   1.264       .  A
C436        O437   1.268       .  A
C436        C481   1.442       .  S
O437       Cr444   2.014   1_556  S
O438       Cr444   1.961   1_556  S
O438        C607   1.251   1_546  A
C439        O606   1.251   1_554  A
C439        O608   1.265       .  A
C439        C473   1.432   1_554  S
O440       Cr445   2.020       .  S
O440        C607   1.265   1_545  A
O441       Cr445   1.984       .  S
O441        C442   1.261       .  A
C442        C475   1.445       .  S
Cr443       O446   1.769       .  S
Cr444       O446   1.772       .  S
Cr445       O446   1.773       .  S
O447       Cr465   1.993       .  S
O447        C455   1.262       .  A
O448       Cr465   2.012       .  S
O448        C449   1.264       .  A
C449        O450   1.254       .  A
C449        C495   1.435       .  S
O450       Cr466   1.972       .  S
O451       Cr466   2.023       .  S
O451        C452   1.268       .  A
C452        O453   1.255       .  A
C452        C470   1.433       .  S
O453       Cr467   1.963       .  S
O454       Cr467   2.007       .  S
O454        C455   1.264       .  A
C455        C471   1.442       .  S
O456       Cr465   2.021       .  S
O456        C464   1.268       .  A
O457       Cr465   1.988       .  S
O457        C458   1.264       .  A
C458        O459   1.268       .  A
C458        C491   1.442       .  S
O459       Cr466   2.013       .  S
O460       Cr466   1.961       .  S
O460        C461   1.252       .  A
C461        O462   1.265       .  A
C461        C665   1.432       .  S
O462       Cr467   2.020       .  S
O463       Cr467   1.984       .  S
O463        C464   1.261       .  A
C464        C493   1.445       .  S
Cr465       O468   1.769       .  S
Cr466       O468   1.772       .  S
Cr467       O468   1.773       .  S
C469        C638   1.205   1_545  T
C470        C637   1.205       .  T
C471        C472   1.210       .  T
C473        C474   1.205       .  T
C475        C476   1.212   1_554  T
C477        C478   1.205       .  T
C481        C482   1.210       .  T
C483        C484   1.210       .  T
C485        C486   1.205       .  T
C487        C656   1.212   1_545  T
C488        C655   1.212       .  T
C489        C490   1.205       .  T
C491        C492   1.210       .  T
C495        C496   1.205       .  T
C497        C629   1.432   1_545  S
C497        C498   1.205       .  T
C499        C500   1.210       .  T
C501        C502   1.205       .  T
C503        C504   1.210       .  T
O505       Cr523   1.993       .  S
O505        C513   1.262       .  A
O506       Cr523   2.011       .  S
O506        C507   1.264       .  A
C507        O508   1.254       .  A
C507        C666   1.435       .  S
O508       Cr524   1.972       .  S
O509       Cr524   2.023       .  S
O509        C510   1.268       .  A
C510        O511   1.255       .  A
C510        C669   1.433       .  S
O511       Cr525   1.962       .  S
O512       Cr525   2.007       .  S
O512        C513   1.264       .  A
C513        C671   1.442       .  S
O514       Cr523   2.020       .  S
O514        C522   1.268       .  A
O515       Cr523   1.988       .  S
O515        C516   1.264       .  A
C516        O517   1.268       .  A
C516        C667   1.442       .  S
O517       Cr524   2.013       .  S
O518       Cr524   1.961       .  S
O518        C519   1.252       .  A
C519        O520   1.265       .  A
C519        C664   1.432       .  S
O520       Cr525   2.020       .  S
O521       Cr525   1.984       .  S
O521        C522   1.262       .  A
C522        C662   1.445       .  S
Cr523       O526   1.769       .  S
Cr524       O526   1.772       .  S
Cr525       O526   1.773       .  S
O527       Cr545   1.993       .  S
O527        C535   1.262       .  A
O528       Cr545   2.011       .  S
O528        C529   1.264       .  A
C529        O530   1.254       .  A
C529        C654   1.435       .  S
O530       Cr546   1.972       .  S
O531       Cr546   2.023       .  S
O531        C532   1.268       .  A
C532        O533   1.255       .  A
C532        C670   1.433       .  S
O533       Cr547   1.962       .  S
O534       Cr547   2.008       .  S
O534        C535   1.265       .  A
C535        C660   1.442       .  S
O536       Cr545   2.020       .  S
O536        C544   1.268       .  A
O537       Cr545   1.988       .  S
O537        C538   1.264       .  A
C538        O539   1.268       .  A
C538        C651   1.442       .  S
O539       Cr546   2.013       .  S
O540       Cr546   1.961       .  S
O540        C541   1.252       .  A
C541        O542   1.265       .  A
C541        C657   1.432       .  S
O542       Cr547   2.020       .  S
O543       Cr547   1.984       .  S
O543        C544   1.262       .  A
C544        C656   1.445       .  S
Cr545       O548   1.769       .  S
Cr546       O548   1.772       .  S
Cr547       O548   1.773       .  S
O549       Cr567   1.993       .  S
O549        C557   1.262       .  A
O550       Cr567   2.012       .  S
O550        C551   1.264       .  A
C551        O552   1.254       .  A
C551        C658   1.435       .  S
O552       Cr568   1.972       .  S
O553       Cr568   2.023       .  S
O553        C554   1.268       .  A
C554        O555   1.255       .  A
C554        C647   1.433       .  S
O555       Cr569   1.962       .  S
O556       Cr569   2.007       .  S
O556        C557   1.264       .  A
C557        C650   1.441       .  S
O558       Cr567   2.021       .  S
O558        C566   1.268       .  A
O559       Cr567   1.988       .  S
O559        C560   1.264       .  A
C560        O561   1.268       .  A
C560        C672   1.442       .  S
O561       Cr568   2.014       .  S
O562       Cr568   1.961       .  S
O562        C563   1.252       .  A
C563        O564   1.265       .  A
O564       Cr569   2.020       .  S
O565       Cr569   1.984       .  S
O565        C566   1.261       .  A
C566        C655   1.445       .  S
Cr567       O570   1.769       .  S
Cr568       O570   1.772       .  S
Cr569       O570   1.773       .  S
O571       Cr589   1.992       .  S
O571        C579   1.262       .  A
O572       Cr589   2.012   1_554  S
O572        C573   1.264   1_554  A
C573        O574   1.254       .  A
C573        C642   1.434       .  S
O574       Cr590   1.971       .  S
O575       Cr590   2.023       .  S
O575        C576   1.268       .  A
C576        O577   1.255       .  A
C576        C648   1.433       .  S
O577       Cr591   1.963       .  S
O578       Cr591   2.007       .  S
O578        C579   1.264       .  A
C579        C652   1.441       .  S
O580       Cr589   2.021       .  S
O580        C588   1.268       .  A
O581       Cr589   1.989   1_554  S
O581        C582   1.264       .  A
C582        O583   1.268       .  A
C582        C640   1.442       .  S
O583       Cr590   2.013   1_554  S
O584       Cr590   1.961   1_554  S
O584        C585   1.252   1_554  A
C585        O586   1.265       .  A
O586       Cr591   2.020       .  S
O587       Cr591   1.984       .  S
O587        C588   1.261       .  A
C588        C644   1.445       .  S
Cr589       O592   1.769       .  S
Cr590       O592   1.772       .  S
Cr591       O592   1.773       .  S
O593       Cr611   1.992       .  S
O593        C601   1.262       .  A
O594       Cr611   2.012       .  S
O594        C595   1.264       .  A
C595        O596   1.254       .  A
C595        C645   1.435       .  S
O596       Cr612   1.971       .  S
O597       Cr612   2.023       .  S
O597        C598   1.268       .  A
C598        O599   1.255       .  A
C598        C637   1.433       .  S
O599       Cr613   1.962       .  S
O600       Cr613   2.007       .  S
O600        C601   1.264       .  A
C601        C668   1.441       .  S
O602       Cr611   2.020       .  S
O602        C610   1.268       .  A
O603       Cr611   1.988   1_556  S
O603        C604   1.264       .  A
C604        O605   1.268       .  A
C604        C649   1.442       .  S
O605       Cr612   2.014   1_556  S
O606       Cr612   1.961   1_556  S
C607        C641   1.432   1_554  S
O608       Cr613   2.020       .  S
O609       Cr613   1.984       .  S
O609        C610   1.261       .  A
C610        C643   1.445       .  S
Cr611       O614   1.769       .  S
Cr612       O614   1.772       .  S
Cr613       O614   1.773       .  S
O615       Cr633   1.993       .  S
O615        C623   1.262       .  A
O616       Cr633   2.012       .  S
O616        C617   1.264       .  A
C617        O618   1.254       .  A
C617        C663   1.435       .  S
O618       Cr634   1.972       .  S
O619       Cr634   2.023       .  S
O619        C620   1.268       .  A
C620        O621   1.255       .  A
C620        C638   1.433       .  S
O621       Cr635   1.963       .  S
O622       Cr635   2.007       .  S
O622        C623   1.264       .  A
C623        C639   1.442       .  S
O624       Cr633   2.021       .  S
O624        C632   1.268       .  A
O625       Cr633   1.988       .  S
O625        C626   1.264       .  A
C626        O627   1.268       .  A
C626        C659   1.442       .  S
O627       Cr634   2.013       .  S
O628       Cr634   1.961       .  S
O628        C629   1.252       .  A
C629        O630   1.265       .  A
O630       Cr635   2.020       .  S
O631       Cr635   1.984       .  S
O631        C632   1.261       .  A
C632        C661   1.445       .  S
Cr633       O636   1.769       .  S
Cr634       O636   1.772       .  S
Cr635       O636   1.773       .  S
C639        C640   1.210       .  T
C641        C642   1.205       .  T
C643        C644   1.212   1_554  T
C645        C646   1.205       .  T
C649        C650   1.210       .  T
C651        C652   1.210       .  T
C653        C654   1.205       .  T
C657        C658   1.205       .  T
C659        C660   1.210       .  T
C663        C664   1.205       .  T
C665        C666   1.205       .  T
C667        C668   1.210       .  T
C669        C670   1.205       .  T
C671        C672   1.210       .  T
