geometry optimzed in LAMMPS
_audit_creation_date              2020-12-01 
_audit_creation_method            'lammps2cif' 
_symmetry_space_group_name_H-M    'P1' 
_symmetry_Int_Tables_number       1 
_symmetry_cell_setting            triclinic 
loop_ 
_symmetry_equiv_pos_as_xyz 
  x,y,z 
_cell_length_a                    74.62104245 
_cell_length_b                    74.45342895006347 
_cell_length_c                    30.162907233885033 
_cell_angle_alpha                 90.02191696547 
_cell_angle_beta                  89.99326567842763 
_cell_angle_gamma                 90.05247013531731 
loop_ 
_atom_site_label 
_atom_site_type_symbol 
_atom_site_fract_x 
_atom_site_fract_y 
_atom_site_fract_z 
_atom_site_charge 
O1          O  0.86339986  0.26910313  0.42927396    -0.85800
O2          O  0.83368207  0.25045113  0.40660664    -0.82800
C3          C  0.83927853  0.24141448  0.37390155     0.97700
O4          O  0.84843664  0.22739843  0.37959926    -0.82800
O5          O  0.87592934  0.20753397  0.41440382    -0.85500
C6          C  0.89012104  0.21646471  0.40656598     1.02200
O7          O  0.89269516  0.23134200  0.42552878    -0.78200
O8          O  0.88605841  0.26257108  0.47212616    -0.78400
C9          C  0.87904203  0.27229314  0.44251928     1.02200
O10         O  0.85585862  0.26395354  0.52281314    -0.85800
O11         O  0.82778888  0.24229912  0.49896346    -0.82800
C12         C  0.81891273  0.22930846  0.48366634     0.97700
O13         O  0.82571070  0.21915218  0.45437145    -0.82800
O14         O  0.85463410  0.20189238  0.49345554    -0.85500
C15         C  0.86989763  0.19997496  0.51067558     1.02200
O16         O  0.88264282  0.21042416  0.50090318    -0.78300
O17         O  0.87251069  0.24127064  0.54377527    -0.78400
C18         C  0.86366138  0.25517949  0.55319349     1.02200
Cr19       Cr  0.84619651  0.25495110  0.46434160     1.93700
Cr20       Cr  0.85171578  0.21545993  0.43734728     1.93200
Cr21       Cr  0.88178703  0.23637103  0.48387412     1.39100
O22         O  0.85984427  0.23557661  0.46180586    -1.23500
O23         O  0.63753810  0.26942576  0.57927454    -0.85800
O24         O  0.66545297  0.25043947  0.61332639    -0.82800
C25         C  0.65822495  0.24047383  0.64228899     0.97700
O26         O  0.64982589  0.22646984  0.63114156    -0.82800
O27         O  0.62641642  0.20615774  0.58158463    -0.85500
C28         C  0.61155655  0.21423388  0.58573797     1.02200
O29         O  0.60941212  0.22952105  0.56838589    -0.78200
O30         O  0.61746089  0.26238367  0.52946518    -0.78400
C31         C  0.62279227  0.27249500  0.56054099     1.02200
O32         O  0.65183961  0.26556291  0.49058925    -0.85800
O33         O  0.67865301  0.24445274  0.52521478    -0.82800
C34         C  0.68639377  0.23123429  0.54286362     0.97700
O35         O  0.67776017  0.22050052  0.56733520    -0.82800
O36         O  0.65311066  0.20344792  0.51320070    -0.85500
C37         C  0.63926286  0.20122991  0.48994542     1.02200
O38         O  0.62573070  0.21127647  0.49466055    -0.78300
O39         O  0.63678688  0.24326502  0.46099547    -0.78400
C40         C  0.64639984  0.25707648  0.45673127     1.02200
Cr41       Cr  0.65731771  0.25589757  0.55157395     1.93700
Cr42       Cr  0.65127937  0.21575754  0.57132326     1.93200
Cr43       Cr  0.62390745  0.23666371  0.51581687     1.39100
O44         O  0.64419843  0.23615671  0.54627592    -1.23500
O45         O  0.83937405  0.27928883  0.02863114    -0.85800
O46         O  0.82293440  0.29047583  0.95105833    -0.82800
C47         C  0.81720641  0.30580429  0.96195557     0.97700
O48         O  0.82814121  0.31859659  0.96753431    -0.82800
O49         O  0.86071340  0.33576334  0.98681623    -0.85500
C50         C  0.86444664  0.33351494  0.02748293     1.02200
O51         O  0.86674664  0.31800590  0.04294799    -0.78200
O52         O  0.86739242  0.28173170  0.05007802    -0.78400
C53         C  0.85106735  0.27871215  0.05882776     1.02200
O54         O  0.86680948  0.26219024  0.97730600    -0.85800
O55         O  0.85259744  0.27708248  0.90229849    -0.82800
C56         C  0.84861325  0.28885359  0.87388838     0.97700
O57         O  0.84393898  0.30448991  0.88609049    -0.82800
O58         O  0.87631362  0.31956817  0.90956771    -0.85500
C59         C  0.89063612  0.32191606  0.93109453     1.02200
O60         O  0.89167320  0.31714199  0.97122074    -0.78300
O61         O  0.88986165  0.28005546  0.97108663    -0.78400
C62         C  0.88317041  0.26454520  0.96802404     1.02200
Cr63       Cr  0.84629094  0.27875100  0.96524659     1.93700
Cr64       Cr  0.85257087  0.31817184  0.93994552     1.93200
Cr65       Cr  0.87755751  0.29911677  0.00602715     1.39100
O66         O  0.85878307  0.29879443  0.97040464    -1.23500
O67         O  0.64830161  0.27047568  0.98959249    -0.85800
O68         O  0.67666199  0.29076510  0.01693767    -0.82800
C69         C  0.68520590  0.30423877  0.03060599     0.97700
O70         O  0.67799159  0.31497827  0.05793383    -0.82800
O71         O  0.65091062  0.33265027  0.01183091    -0.85500
C72         C  0.63582106  0.33532498  0.99422808     1.02200
O73         O  0.62279010  0.32503886  0.00258538    -0.78200
O74         O  0.63315854  0.29351498  0.96394736    -0.78400
C75         C  0.64214029  0.27945288  0.95729073     1.02200
O76         O  0.63773393  0.26656748  0.08141526    -0.85800
O77         O  0.66704529  0.28470123  0.10940257    -0.82800
C78         C  0.66100830  0.29495018  0.13951879     0.97700
O79         O  0.65295996  0.30926240  0.12961570    -0.82800
O80         O  0.62740517  0.32929814  0.08811536    -0.85500
C81         C  0.61276662  0.32095989  0.09484733     1.02200
O82         O  0.61021465  0.30573131  0.07754474    -0.78300
O83         O  0.61656444  0.27353789  0.03454341    -0.78400
C84         C  0.62257947  0.26353305  0.06494692     1.02200
Cr85       Cr  0.65649975  0.27970867  0.04916316     1.93700
Cr86       Cr  0.65183375  0.31999425  0.07004802     1.93200
Cr87       Cr  0.62230945  0.29938368  0.02155132     1.39100
O88         O  0.64361295  0.29967105  0.04706194    -1.23500
O89         O  0.50591065  0.41593498  0.78009588    -0.85800
O90         O  0.52687507  0.44426920  0.75507499    -0.82800
C91         C  0.53976235  0.45324702  0.73986761     0.97700
O92         O  0.55035468  0.44617867  0.71220122    -0.82800
O93         O  0.56683805  0.41747336  0.75592239    -0.85500
C94         C  0.56886859  0.40203905  0.77249313     1.02200
O95         O  0.55908989  0.38903597  0.76037369    -0.78200
O96         O  0.52736030  0.39731603  0.79936478    -0.78400
C97         C  0.51425975  0.40715463  0.80961709     1.02200
O98         O  0.49988069  0.40791437  0.68716228    -0.85800
O99         O  0.51978316  0.43689420  0.66243561    -0.82800
C100        C  0.52988644  0.43181495  0.63097481     0.97700
O101        O  0.54411613  0.42315231  0.63829907    -0.82800
O102        O  0.56418334  0.39611677  0.67691646    -0.85500
C103        C  0.55587937  0.38183365  0.66667490     1.02200
O104        O  0.54013122  0.37933895  0.68044551    -0.78300
O105        O  0.50784098  0.38406986  0.72440969    -0.78400
C106        C  0.49698265  0.39195983  0.69886501     1.02200
Cr107      Cr  0.51473341  0.42516468  0.72105840     1.93700
Cr108      Cr  0.55476054  0.42012547  0.69761054     1.93200
Cr109      Cr  0.53357513  0.38919807  0.73929903     1.39100
O110        O  0.53422702  0.41154100  0.71923537    -1.23500
O111        O  0.50807239  0.62114488  0.75079993    -0.85800
O112        O  0.52766045  0.59412178  0.78778780    -0.82800
C113        C  0.54088702  0.58613485  0.80435474     0.97700
O114        O  0.55204832  0.59453128  0.82834350    -0.82800
O115        O  0.57031565  0.61895738  0.77544545    -0.85500
C116        C  0.57320192  0.63292634  0.75295957     1.02200
O117        O  0.56295042  0.64636020  0.75606396    -0.78200
O118        O  0.53103921  0.63491294  0.72052235    -0.78400
C119        C  0.51684384  0.62580576  0.71668797     1.02200
O120        O  0.50390902  0.63651294  0.83795638    -0.85800
O121        O  0.52160770  0.60856039  0.87531809    -0.82800
C122        C  0.53183567  0.61572730  0.90380802     0.97700
O123        O  0.54629898  0.62310348  0.89215475    -0.82800
O124        O  0.56711161  0.64611950  0.84339196    -0.85500
C125        C  0.55913500  0.66116321  0.84562501     1.02200
O126        O  0.54408704  0.66320906  0.82711107    -0.78300
O127        O  0.51177406  0.65549128  0.78615329    -0.78400
C128        C  0.50133115  0.65086397  0.81709152     1.02200
Cr129      Cr  0.51700328  0.61605893  0.81250046     1.93700
Cr130      Cr  0.55731620  0.62112637  0.83280017     1.93200
Cr131      Cr  0.53738118  0.64841717  0.77491052     1.39100
O132        O  0.53721614  0.62845842  0.80677108    -1.23500
O133        O  0.50882816  0.40163809  0.23788293    -0.85800
O134        O  0.49349918  0.41438360  0.16135826    -0.82800
C135        C  0.48183335  0.41857094  0.13294701     0.97700
O136        O  0.46628558  0.42351317  0.14529283    -0.82800
O137        O  0.45064585  0.39131451  0.16835975    -0.85500
C138        C  0.44979151  0.37639889  0.18826237     1.02200
O139        O  0.45511540  0.37495662  0.22800119    -0.78200
O140        O  0.49179806  0.37804014  0.23190900    -0.78400
C141        C  0.50709517  0.38516521  0.22919654     1.02200
O142        O  0.49109289  0.42895771  0.28647143    -0.85800
O143        O  0.47961520  0.44450299  0.20845151    -0.82800
C144        C  0.46478516  0.45018710  0.22285353     0.97700
O145        O  0.45202785  0.43921349  0.22802886    -0.82800
O146        O  0.43451199  0.40670092  0.24506150    -0.85500
C147        C  0.43656857  0.40271325  0.28555316     1.02200
O148        O  0.45193320  0.39961124  0.30100694    -0.78300
O149        O  0.48812071  0.40113533  0.31027227    -0.78400
C150        C  0.49166594  0.41757775  0.31738747     1.02200
Cr151      Cr  0.49169583  0.42142356  0.22384959     1.93700
Cr152      Cr  0.45236846  0.41490476  0.19911330     1.93200
Cr153      Cr  0.47179747  0.38981971  0.26505857     1.39100
O154        O  0.47180509  0.40862042  0.22944115    -1.23500
O155        O  0.50305254  0.63100439  0.34562706    -0.85800
O156        O  0.48455454  0.60174406  0.37409042    -0.82800
C157        C  0.47456495  0.60817965  0.40409625     0.97700
O158        O  0.46039591  0.61645650  0.39414225    -0.82800
O159        O  0.44094840  0.64198252  0.34998382    -0.85500
C160        C  0.44933629  0.65670266  0.35555903     1.02200
O161        O  0.46453424  0.65899050  0.33805536    -0.78200
O162        O  0.49687918  0.65149818  0.29626753    -0.78400
C163        C  0.50648469  0.64591772  0.32797563     1.02200
O164        O  0.49957082  0.61933043  0.25399395    -0.85800
O165        O  0.47863027  0.59140905  0.28298778    -0.82800
C166        C  0.46527813  0.58289971  0.29765149     0.97700
O167        O  0.45440115  0.59057578  0.32389416    -0.82800
O168        O  0.43738186  0.61757373  0.27566823    -0.85500
C169        C  0.43527091  0.63223579  0.25538577     1.02200
O170        O  0.44531458  0.64551128  0.26338598    -0.78300
O171        O  0.47681002  0.63426635  0.22652697    -0.78400
C172        C  0.49100701  0.62543056  0.22091971     1.02200
Cr173      Cr  0.48992311  0.61184245  0.31387651     1.93700
Cr174      Cr  0.44980842  0.61714033  0.33409043     1.93200
Cr175      Cr  0.47089704  0.64593672  0.28323472     1.39100
O176        O  0.47020167  0.62490955  0.31055168    -1.23500
O177        O  0.36411533  0.76784894  0.94523752    -0.85800
O178        O  0.33671047  0.74737605  0.91462943    -0.82800
C179        C  0.34421657  0.73801154  0.88490034     0.97700
O180        O  0.35352005  0.72451914  0.89516815    -0.82800
O181        O  0.37938154  0.70584767  0.93878344    -0.85500
C182        C  0.39325915  0.71533499  0.93191910     1.02200
O183        O  0.39461146  0.73064323  0.94955308    -0.78200
O184        O  0.38550422  0.76201848  0.99259217    -0.78400
C185        C  0.37895616  0.77172557  0.96237496     1.02200
O186        O  0.35262736  0.76258689  0.03552189    -0.85800
O187        O  0.32626371  0.74027823  0.00511343    -0.82800
C188        C  0.31873166  0.72705415  0.98719034     0.97700
O189        O  0.32747832  0.71661978  0.96210220    -0.82800
O190        O  0.35507542  0.70076278  0.01238017    -0.85500
C191        C  0.37002574  0.69920498  0.03166405     1.02200
O192        O  0.38252317  0.71026268  0.02419545    -0.78300
O193        O  0.36966437  0.74102393  0.06182077    -0.78400
C194        C  0.35935034  0.75419019  0.06801138     1.02200
Cr195      Cr  0.34604599  0.75303214  0.97545395     1.93700
Cr196      Cr  0.35418756  0.71343179  0.95416705     1.93200
Cr197      Cr  0.38147901  0.73592746  0.00502371     1.39100
O198        O  0.36048620  0.73416667  0.97828358    -1.23500
O199        O  0.13758951  0.76763542  0.08833012    -0.85800
O200        O  0.16749776  0.75033707  0.11553631    -0.82800
C201        C  0.16200611  0.74052733  0.14696916     0.97700
O202        O  0.15373393  0.72606992  0.13967741    -0.82800
O203        O  0.12833067  0.70465382  0.10028019    -0.85500
C204        C  0.11339830  0.71247392  0.10635861     1.02200
O205        O  0.11071607  0.72785582  0.09002232    -0.78200
O206        O  0.11604703  0.75980223  0.04340259    -0.78400
C207        C  0.12219712  0.77025516  0.07271074     1.02200
O208        O  0.14768957  0.76243532  0.99622879    -0.85800
O209        O  0.17663436  0.74296141  0.02451162    -0.82800
C210        C  0.18567784  0.73037633  0.04114620     0.97700
O211        O  0.17852239  0.71985530  0.06904880    -0.82800
O212        O  0.15145138  0.70097103  0.02431814    -0.85500
C213        C  0.13623790  0.69769092  0.00791130     1.02200
O214        O  0.12307644  0.70789419  0.01568902    -0.78300
O215        O  0.13222133  0.73901296  0.97412243    -0.78400
C216        C  0.14120192  0.75288956  0.96535233     1.02200
Cr217      Cr  0.15638198  0.75430021  0.05611004     1.93700
Cr218      Cr  0.15246147  0.71439540  0.08137441     1.93200
Cr219      Cr  0.12214963  0.73378526  0.03270811     1.39100
O220        O  0.14374150  0.73418588  0.05676329    -1.23500
O221        O  0.33985276  0.77968577  0.54139850    -0.85800
O222        O  0.32199104  0.79164057  0.46747040    -0.82800
C223        C  0.31708670  0.80679284  0.48174158     0.97700
O224        O  0.32820860  0.81956708  0.48363449    -0.82800
O225        O  0.36149317  0.83540468  0.50009894    -0.85500
C226        C  0.36561047  0.83242058  0.54029267     1.02200
O227        O  0.36836324  0.81662654  0.55374770    -0.78200
O228        O  0.36846647  0.77984940  0.55754240    -0.78400
C229        C  0.35233975  0.77733569  0.56880869     1.02200
O230        O  0.36555488  0.76162162  0.48481498    -0.85800
O231        O  0.34983684  0.77758039  0.41367129    -0.82800
C232        C  0.34549887  0.78963603  0.38644338     0.97700
O233        O  0.34194620  0.80545372  0.39966994    -0.82800
O234        O  0.37506491  0.81956590  0.41979106    -0.85500
C235        C  0.38980837  0.82135125  0.43976384     1.02200
O236        O  0.39153559  0.81603246  0.47927212    -0.78300
O237        O  0.38894685  0.77895508  0.47646741    -0.78400
C238        C  0.38188800  0.76356667  0.47430856     1.02200
Cr239      Cr  0.34521407  0.77907311  0.47720864     1.93700
Cr240      Cr  0.35202599  0.81852708  0.45291615     1.93200
Cr241      Cr  0.37791061  0.79790331  0.51419171     1.39100
O242        O  0.35840449  0.79862245  0.48121902    -1.23500
O243        O  0.16355499  0.77818662  0.49123148    -0.85800
O244        O  0.18006829  0.78934156  0.56803137    -0.82800
C245        C  0.18597674  0.80476545  0.55797638     0.97700
O246        O  0.17520109  0.81764148  0.55288879    -0.82800
O247        O  0.14335299  0.83492099  0.53179574    -0.85500
C248        C  0.14032653  0.83263255  0.49068336     1.02200
O249        O  0.13731603  0.81714195  0.47557255    -0.78200
O250        O  0.13560663  0.78073834  0.46963648    -0.78400
C251        C  0.15189408  0.77761855  0.46115225     1.02200
O252        O  0.13548415  0.76128353  0.54213578    -0.85800
O253        O  0.15014103  0.77593453  0.61669534    -0.82800
C254        C  0.15443422  0.78747709  0.64529219     0.97700
O255        O  0.15883104  0.80328965  0.63360239    -0.82800
O256        O  0.12689879  0.81884223  0.60889969    -0.85500
C257        C  0.11297519  0.82182155  0.58646177     1.02200
O258        O  0.11217067  0.81707115  0.54633083    -0.78300
O259        O  0.11304797  0.78000429  0.54791973    -0.78400
C260        C  0.11917892  0.76426991  0.55123755     1.02200
Cr261      Cr  0.15648913  0.77768287  0.55407213     1.93700
Cr262      Cr  0.15070961  0.81722521  0.57947380     1.93200
Cr263      Cr  0.12584131  0.79859409  0.51263097     1.39100
O264        O  0.14440165  0.79794148  0.54874006    -1.23500
O265        O  0.00253313  0.40357900  0.83363458    -0.85800
O266        O  0.02166228  0.43280177  0.86233974    -0.82800
C267        C  0.03261399  0.42690620  0.89104101     0.97700
O268        O  0.04621859  0.41811914  0.87937123    -0.82800
O269        O  0.06512638  0.39255291  0.83567767    -0.85500
C270        C  0.05635204  0.37829397  0.84360151     1.02200
O271        O  0.04095328  0.37610980  0.82722079    -0.78200
O272        O  0.00867534  0.38283945  0.78493730    -0.78400
C273        C  0.99905542  0.38856703  0.81636540     1.02200
O274        O  0.00604840  0.41532393  0.74179762    -0.85800
O275        O  0.02707355  0.44328283  0.77069863    -0.82800
C276        C  0.04076523  0.45150567  0.78449525     0.97700
O277        O  0.05174696  0.44368788  0.80995008    -0.82800
O278        O  0.06817536  0.41648825  0.76058425    -0.85500
C279        C  0.07063565  0.40133483  0.74297644     1.02200
O280        O  0.06009281  0.38843918  0.75110643    -0.78300
O281        O  0.02832105  0.39936881  0.71479393    -0.78400
C282        C  0.01440378  0.40864932  0.70897950     1.02200
Cr283      Cr  0.01583098  0.42275825  0.80177117     1.93700
Cr284      Cr  0.05618505  0.41724031  0.81947687     1.93200
Cr285      Cr  0.03453756  0.38832024  0.77153389     1.39100
O286        O  0.03548422  0.40957922  0.79750513    -1.23500
O287        O  0.99812508  0.63429005  0.73411983    -0.85800
O288        O  0.01418297  0.61879046  0.66208315    -0.82800
C289        C  0.02635818  0.61473801  0.63480851     0.97700
O290        O  0.04199422  0.61066255  0.64837590    -0.82800
O291        O  0.05712694  0.64287636  0.67146507    -0.85500
C292        C  0.05805962  0.65789750  0.69066927     1.02200
O293        O  0.05293535  0.65949858  0.73040884    -0.78200
O294        O  0.01624039  0.65711255  0.72593636    -0.78400
C295        C  0.00070060  0.65055024  0.72355944     1.02200
O296        O  0.01524019  0.60768901  0.79003096    -0.85800
O297        O  0.02712963  0.59003383  0.71441014    -0.82800
C298        C  0.04236252  0.58441953  0.72614344     0.97700
O299        O  0.05495886  0.59543035  0.73243409    -0.82800
O300        O  0.07154914  0.62785999  0.75224695    -0.85500
C301        C  0.06817722  0.63163880  0.79246172     1.02200
O302        O  0.05249647  0.63551757  0.80457164    -0.78300
O303        O  0.01602529  0.63628679  0.80696532    -0.78400
C304        C  0.01302030  0.62014088  0.81789207     1.02200
Cr305      Cr  0.01516097  0.61355571  0.72570749     1.93700
Cr306      Cr  0.05492114  0.61960442  0.70334132     1.93200
Cr307      Cr  0.03448616  0.64567978  0.76440209     1.39100
O308        O  0.03500174  0.62628135  0.73094497    -1.23500
O309        O  0.99243709  0.43013244  0.23602044    -0.85800
O310        O  0.97926185  0.44468684  0.31329944    -0.82800
C311        C  0.96410170  0.45037574  0.30105535     0.97700
O312        O  0.95159430  0.43946245  0.29288655    -0.82800
O313        O  0.93538215  0.40740462  0.26868469    -0.85500
C314        C  0.93816401  0.40503387  0.22765458     1.02200
O315        O  0.95393652  0.40350117  0.21312877    -0.78200
O316        O  0.99087367  0.40256353  0.21079443    -0.78400
C317        C  0.99474410  0.41896134  0.20521876     1.02200
O318        O  0.00864151  0.40131121  0.28632269    -0.85800
O319        O  0.99205255  0.41443219  0.36104193    -0.82800
C320        C  0.97985218  0.41877982  0.38795422     0.97700
O321        O  0.96435188  0.42282649  0.37393021    -0.82800
O322        O  0.95070405  0.39044381  0.34477350    -0.85500
C323        C  0.94835774  0.37679167  0.32066093     1.02200
O324        O  0.95347264  0.37675720  0.28070466    -0.78300
O325        O  0.99044297  0.37824466  0.28517409    -0.78400
C326        C  0.00594672  0.38461096  0.29095831     1.02200
Cr327      Cr  0.99164976  0.42174579  0.29840536     1.93700
Cr328      Cr  0.95198663  0.41474519  0.31789708     1.93200
Cr329      Cr  0.97220607  0.39157184  0.25027587     1.39100
O330        O  0.97189417  0.40933992  0.28894821    -1.23500
O331        O  0.99726260  0.61872220  0.28185857    -0.85800
O332        O  0.97546638  0.59150439  0.25548054    -0.82800
C333        C  0.96247155  0.58272412  0.24032537     0.97700
O334        O  0.95182521  0.59005217  0.21309237    -0.82800
O335        O  0.93505514  0.61697170  0.26345702    -0.85500
C336        C  0.93284987  0.63194725  0.28242999     1.02200
O337        O  0.94313028  0.64506216  0.27406780    -0.78200
O338        O  0.97540250  0.63520233  0.30846652    -0.78400
C339        C  0.98920572  0.62578586  0.31451373     1.02200
O340        O  0.00077397  0.62932687  0.19021157    -0.85800
O341        O  0.98091385  0.60071018  0.16279959    -0.82800
C342        C  0.97118518  0.60797715  0.13334196     0.97700
O343        O  0.95722386  0.61643572  0.14420781    -0.82800
O344        O  0.93715596  0.64114724  0.18946499    -0.85500
C345        C  0.94529890  0.65582334  0.18221489     1.02200
O346        O  0.96106487  0.65798881  0.19621007    -0.78300
O347        O  0.99391866  0.65137042  0.23515650    -0.78400
C348        C  0.00402160  0.64462663  0.20587485     1.02200
Cr349      Cr  0.98704670  0.61103739  0.22280511     1.93700
Cr350      Cr  0.94688434  0.61657811  0.20420404     1.93200
Cr351      Cr  0.96839617  0.64580610  0.25148585     1.39100
O352        O  0.96751234  0.62446996  0.22618252    -1.23500
O353        O  0.50054633  0.13291690  0.19578449    -0.85800
O354        O  0.51880417  0.10333774  0.16844252    -0.82800
C355        C  0.52887271  0.10980386  0.13862490     0.97700
O356        O  0.54296729  0.11815436  0.14900711    -0.82800
O357        O  0.56315080  0.14302279  0.19391226    -0.85500
C358        C  0.55505444  0.15779264  0.18774219     1.02200
O359        O  0.53959631  0.16020614  0.20359329    -0.78200
O360        O  0.50690618  0.15364815  0.24447927    -0.78400
C361        C  0.49735197  0.14800683  0.21275088     1.02200
O362        O  0.50335071  0.12146570  0.28769022    -0.85800
O363        O  0.52399394  0.09313359  0.25962313    -0.82800
C364        C  0.53718466  0.08450811  0.24458124     0.97700
O365        O  0.54831598  0.09211524  0.21895038    -0.82800
O366        O  0.56572234  0.11869152  0.26747927    -0.85500
C367        C  0.56838507  0.13353525  0.28649917     1.02200
O368        O  0.55810044  0.14674796  0.27967435    -0.78300
O369        O  0.52602716  0.13654112  0.31539195    -0.78400
C370        C  0.51180433  0.12769115  0.32081649     1.02200
Cr371      Cr  0.51320435  0.11369275  0.22828537     1.93700
Cr372      Cr  0.55346060  0.11847908  0.20910297     1.93200
Cr373      Cr  0.53263069  0.14768209  0.25873216     1.39100
O374        O  0.53311182  0.12651759  0.23218712    -1.23500
O375        O  0.49937583  0.90133221  0.33583559    -0.85800
O376        O  0.51606726  0.92990235  0.37020409    -0.82800
C377        C  0.52546025  0.92266487  0.40029002     0.97700
O378        O  0.54006495  0.91509696  0.39090771    -0.82800
O379        O  0.56128021  0.89110995  0.34710151    -0.85500
C380        C  0.55293451  0.87627223  0.35062705     1.02200
O381        O  0.53815476  0.87410807  0.33089895    -0.78200
O382        O  0.50655464  0.88156885  0.28551236    -0.78400
C383        C  0.49660567  0.88658245  0.31710424     1.02200
O384        O  0.50428394  0.91460666  0.24575206    -0.85800
O385        O  0.52360877  0.94243293  0.28124481    -0.82800
C386        C  0.53644237  0.95071230  0.29901401     0.97700
O387        O  0.54705279  0.94260187  0.32507875    -0.82800
O388        O  0.56568586  0.91704995  0.27634407    -0.85500
C389        C  0.56862613  0.90276874  0.25512598     1.02200
O390        O  0.55861463  0.88919907  0.25990857    -0.78300
O391        O  0.52769649  0.90016774  0.21987819    -0.78400
C392        C  0.51366309  0.90915927  0.21325520     1.02200
Cr393      Cr  0.51236983  0.92112214  0.30785564     1.93700
Cr394      Cr  0.55204826  0.91603116  0.33275314     1.93200
Cr395      Cr  0.53266851  0.88782248  0.27629879     1.39100
O396        O  0.53239268  0.90845131  0.30549604    -1.23500
O397        O  0.49867266  0.12034052  0.78947179    -0.85800
O398        O  0.47774172  0.09355165  0.75529057    -0.82800
C399        C  0.46484010  0.08545901  0.73743493     0.97700
O400        O  0.45383010  0.09399238  0.71346423    -0.82800
O401        O  0.43692669  0.11897487  0.76829214    -0.85500
C402        C  0.43442481  0.13327449  0.78976697     1.02200
O403        O  0.44467453  0.14667449  0.78466794    -0.78200
O404        O  0.47657833  0.13581852  0.81856965    -0.78400
C405        C  0.49017704  0.12600607  0.82311029     1.02200
O406        O  0.50252233  0.13427519  0.70027180    -0.85800
O407        O  0.48343786  0.10678428  0.66615899    -0.82800
C408        C  0.47311126  0.11396467  0.63781793     0.97700
O409        O  0.45904760  0.12199960  0.64964903    -0.82800
O410        O  0.43907265  0.14562362  0.69913949    -0.85500
C411        C  0.44728029  0.16047459  0.69485749     1.02200
O412        O  0.46286248  0.16227991  0.71052166    -0.78300
O413        O  0.49577585  0.15489434  0.74904740    -0.78400
C414        C  0.50580085  0.14910959  0.71829817     1.02200
Cr415      Cr  0.48902242  0.11474847  0.72833414     1.93700
Cr416      Cr  0.44882989  0.12061037  0.70963260     1.93200
Cr417      Cr  0.47003808  0.14835366  0.76342211     1.39100
O418        O  0.46936352  0.12787188  0.73372167    -1.23500
O419        O  0.49583667  0.91415207  0.74770843    -0.85800
O420        O  0.47614085  0.94298741  0.77431929    -0.82800
C421        C  0.46351673  0.95214902  0.78989659     0.97700
O422        O  0.45290075  0.94542823  0.81805889    -0.82800
O423        O  0.43480190  0.91797926  0.77352224    -0.85500
C424        C  0.43194266  0.90265371  0.75695832     1.02200
O425        O  0.44173188  0.88940543  0.76710304    -0.78200
O426        O  0.47314736  0.89739247  0.72656934    -0.78400
C427        C  0.48684546  0.90650558  0.71730084     1.02200
O428        O  0.50131487  0.90543325  0.84042053    -0.85800
O429        O  0.48326502  0.93469908  0.86718620    -0.82800
C430        C  0.47363716  0.92860938  0.89852910     0.97700
O431        O  0.45895329  0.92087502  0.89029288    -0.82800
O432        O  0.43759741  0.89558656  0.85069617    -0.85500
C433        C  0.44549730  0.88088735  0.85885073     1.02200
O434        O  0.46108973  0.87819994  0.84431026    -0.78300
O435        O  0.49316437  0.88258602  0.79971167    -0.78400
C436        C  0.50389507  0.88971627  0.82703223     1.02200
Cr437      Cr  0.48754687  0.92338180  0.80734646     1.93700
Cr438      Cr  0.44758915  0.91945840  0.83139511     1.93200
Cr439      Cr  0.46739923  0.88855028  0.78622187     1.39100
O440        O  0.46757830  0.91053307  0.80821794    -1.23500
O441        O  0.86542259  0.76966183  0.09182678    -0.85800
O442        O  0.83843265  0.79011918  0.12482629    -0.82800
C443        C  0.84634949  0.79882612  0.15535955     0.97700
O444        O  0.85586651  0.81231186  0.14615834    -0.82800
O445        O  0.88047581  0.83296541  0.10200002    -0.85500
C446        C  0.89475776  0.82404672  0.10748011     1.02200
O447        O  0.89603385  0.80853379  0.09124341    -0.78200
O448        O  0.88794740  0.77687483  0.04876177    -0.78400
C449        C  0.88077719  0.76639323  0.07661015     1.02200
O450        O  0.85413416  0.77624900  0.00190050    -0.85800
O451        O  0.82819261  0.79886886  0.03359502    -0.82800
C452        C  0.82047735  0.81158029  0.05323111     0.97700
O453        O  0.82876720  0.82047502  0.08248367    -0.82800
O454        O  0.85517189  0.83734465  0.03142981    -0.85500
C455        C  0.86947910  0.83885901  0.00942321     1.02200
O456        O  0.88273342  0.82862082  0.01643439    -0.78300
O457        O  0.87214648  0.79750230  0.97840921    -0.78400
C458        C  0.86198031  0.78439758  0.97052247     1.02200
Cr459      Cr  0.84757660  0.78519489  0.06290338     1.93700
Cr460      Cr  0.85546720  0.82427826  0.08854114     1.93200
Cr461      Cr  0.88313655  0.80290393  0.03585922     1.39100
O462        O  0.86207227  0.80400986  0.06229193    -1.23500
O463        O  0.64144315  0.77147530  0.95219262    -0.85800
O464        O  0.66926068  0.79162915  0.92056471    -0.82800
C465        C  0.66149301  0.80103893  0.89115270     0.97700
O466        O  0.65286345  0.81494972  0.90160337    -0.82800
O467        O  0.62877210  0.83579047  0.94686989    -0.85500
C468        C  0.61431039  0.82722831  0.94045742     1.02200
O469        O  0.61268920  0.81150300  0.95529109    -0.78200
O470        O  0.61934650  0.77914913  0.99599015    -0.78400
C471        C  0.62590360  0.76873590  0.96706699     1.02200
O472        O  0.65321789  0.77695177  0.04274000    -0.85800
O473        O  0.68014516  0.79859748  0.01230414    -0.82800
C474        C  0.68818817  0.81152880  0.99434465     0.97700
O475        O  0.68004594  0.82134325  0.96666283    -0.82800
O476        O  0.65393649  0.83854192  0.01859409    -0.85500
C477        C  0.63922836  0.84081664  0.03854391     1.02200
O478        O  0.62604001  0.83046356  0.03152943    -0.78300
O479        O  0.63600412  0.79864878  0.06760451    -0.78400
C480        C  0.64618586  0.78548697  0.07468743     1.02200
Cr481      Cr  0.65999735  0.78618998  0.98216641     1.93700
Cr482      Cr  0.65352288  0.82609015  0.96033101     1.93200
Cr483      Cr  0.62511001  0.80489026  0.01060232     1.39100
O484        O  0.64624296  0.80561421  0.98454928    -1.23500
O485        O  0.84121363  0.75370368  0.49725257    -0.85800
O486        O  0.82452540  0.74252484  0.57435776    -0.82800
C487        C  0.81900515  0.72747763  0.56084667     0.97700
O488        O  0.82984130  0.71449631  0.55838066    -0.82800
O489        O  0.86234291  0.69781931  0.53923936    -0.85500
C490        C  0.86597152  0.70046418  0.49860201     1.02200
O491        O  0.86922180  0.71605304  0.48440932    -0.78200
O492        O  0.86960140  0.75271087  0.47877072    -0.78400
C493        C  0.85344460  0.75594053  0.46897223     1.02200
O494        O  0.86800044  0.77178311  0.55015094    -0.85800
O495        O  0.85359156  0.75659682  0.62375819    -0.82800
C496        C  0.85004872  0.74487316  0.65255371     0.97700
O497        O  0.84562018  0.72901593  0.64100922    -0.82800
O498        O  0.87781607  0.71363989  0.61741582    -0.85500
C499        C  0.89258343  0.71254198  0.59711930     1.02200
O500        O  0.89375303  0.71728850  0.55703107    -0.78300
O501        O  0.89114314  0.75413606  0.55779218    -0.78400
C502        C  0.88438213  0.76964184  0.55959264     1.02200
Cr503      Cr  0.84767658  0.75461663  0.56099598     1.93700
Cr504      Cr  0.85420897  0.71520134  0.58676825     1.93200
Cr505      Cr  0.87950825  0.73499242  0.52215127     1.39100
O506        O  0.86049926  0.73479064  0.55683645    -1.23500
O507        O  0.66195551  0.75655366  0.54991975    -0.85800
O508        O  0.68107084  0.74635430  0.47597744    -0.82800
C509        C  0.68680055  0.73078486  0.48470021     0.97700
O510        O  0.67602593  0.71769092  0.48545809    -0.82800
O511        O  0.64375214  0.70030746  0.50294791    -0.85500
C512        C  0.63986690  0.70259905  0.54362375     1.02200
O513        O  0.63612061  0.71802302  0.55830302    -0.78200
O514        O  0.63337915  0.75477178  0.56479085    -0.78400
C515        C  0.64920716  0.75832203  0.57690941     1.02200
O516        O  0.63568184  0.77379489  0.49293471    -0.85800
O517        O  0.65317676  0.76004144  0.42161465    -0.82800
C518        C  0.65780981  0.74866007  0.39293252     0.97700
O519        O  0.66102662  0.73248850  0.40389534    -0.82800
O520        O  0.62853204  0.71631361  0.42401716    -0.85500
C521        C  0.61416318  0.71309391  0.44465350     1.02200
O522        O  0.61255656  0.71778337  0.48466724    -0.78300
O523        O  0.61326080  0.75519931  0.48351989    -0.78400
C524        C  0.61951948  0.77097287  0.48186143     1.02200
Cr525      Cr  0.65708824  0.75759635  0.48537676     1.93700
Cr526      Cr  0.65187000  0.71820324  0.45641541     1.93200
Cr527      Cr  0.62529195  0.73652570  0.52013803     1.39100
O528        O  0.64479036  0.73734686  0.48696650    -1.23500
O529        O  0.36499565  0.26453595  0.55597956    -0.85800
O530        O  0.34689821  0.28076977  0.62327771    -0.82800
C531        C  0.34144390  0.29305214  0.64860673     0.97700
O532        O  0.33807952  0.30869771  0.63389593    -0.82800
O533        O  0.37064379  0.32502390  0.61763388    -0.85500
C534        C  0.38614046  0.32618951  0.60112414     1.02200
O535        O  0.38958532  0.31965462  0.56351299    -0.78200
O536        O  0.38744038  0.28275946  0.56735425    -0.78400
C537        C  0.38074190  0.26722646  0.56994927     1.02200
O538        O  0.34048956  0.28093180  0.49421177    -0.85800
O539        O  0.32023845  0.29297321  0.56474411    -0.82800
C540        C  0.31466701  0.30804431  0.55169711     0.97700
O541        O  0.32556523  0.32090141  0.54733315    -0.82800
O542        O  0.35842285  0.33828479  0.53435485    -0.85500
C543        C  0.36455882  0.33519218  0.49589856     1.02200
O544        O  0.36881279  0.31949841  0.48424340    -0.78300
O545        O  0.36940425  0.28283259  0.48256680    -0.78400
C546        C  0.35373849  0.27970504  0.46848696     1.02200
Cr547      Cr  0.34410288  0.28140559  0.55908738     1.93700
Cr548      Cr  0.34866690  0.32160446  0.58115056     1.93200
Cr549      Cr  0.37724157  0.30118070  0.52676423     1.39100
O550        O  0.35670744  0.30156095  0.55588200    -1.23500
O551        O  0.13656056  0.26092808  0.46323406    -0.85800
O552        O  0.15498184  0.27853331  0.39758983    -0.82800
C553        C  0.15985790  0.29141565  0.37333275     0.97700
O554        O  0.16174926  0.30714309  0.38886062    -0.82800
O555        O  0.12768527  0.32016483  0.40300809    -0.85500
C556        C  0.11205522  0.32033781  0.41905031     1.02200
O557        O  0.10933380  0.31490640  0.45814054    -0.78200
O558        O  0.11344281  0.27848438  0.45259001    -0.78400
C559        C  0.12062674  0.26321401  0.45008317     1.02200
O560        O  0.15970229  0.27792654  0.52731380    -0.85800
O561        O  0.17979416  0.29220037  0.46021743    -0.82800
C562        C  0.18364792  0.30744538  0.47586037     0.97700
O563        O  0.17213555  0.31984152  0.47622816    -0.82800
O564        O  0.13851781  0.33466548  0.48758488    -0.85500
C565        C  0.13406132  0.33081372  0.52701144     1.02200
O566        O  0.13035095  0.31487986  0.53771595    -0.78300
O567        O  0.13071842  0.27828017  0.53780805    -0.78400
C568        C  0.14639335  0.27567145  0.55230424     1.02200
Cr569      Cr  0.15672453  0.27888651  0.46232802     1.93700
Cr570      Cr  0.14959771  0.31886795  0.44077901     1.93200
Cr571      Cr  0.12247928  0.29675646  0.49435855     1.39100
O572        O  0.14295323  0.29825286  0.46556566    -1.23500
O573        O  0.34085690  0.25723365  0.99364018    -0.85800
O574        O  0.32259270  0.24535873  0.06611939    -0.82800
C575        C  0.31731662  0.23030860  0.05162053     0.97700
O576        O  0.32794581  0.21713739  0.05026448    -0.82800
O577        O  0.36032672  0.19974313  0.03549070    -0.85500
C578        C  0.36416689  0.20221322  0.99499270     1.02200
O579        O  0.36721436  0.21779786  0.98048905    -0.78200
O580        O  0.36916314  0.25440085  0.97522295    -0.78400
C581        C  0.35314354  0.25813566  0.96525575     1.02200
O582        O  0.36765685  0.27353148  0.04921329    -0.85800
O583        O  0.35149328  0.25801191  0.12090562    -0.82800
C584        C  0.34636888  0.24607361  0.14757844     0.97700
O585        O  0.34142659  0.23077780  0.13377468    -0.82800
O586        O  0.37452641  0.21557905  0.11499194    -0.85500
C587        C  0.38909502  0.21298569  0.09461138     1.02200
O588        O  0.39074693  0.21770377  0.05460211    -0.78300
O589        O  0.38991884  0.25468405  0.05645317    -0.78400
C590        C  0.38380118  0.27042509  0.05947568     1.02200
Cr591      Cr  0.34646945  0.25705567  0.05727911     1.93700
Cr592      Cr  0.35146319  0.21725877  0.08155450     1.93200
Cr593      Cr  0.37788616  0.23625800  0.01917553     1.39100
O594        O  0.35856504  0.23676462  0.05260267    -1.23500
O595        O  0.16557451  0.25724622  0.02620373    -0.85800
O596        O  0.18195716  0.24424091  0.95089375    -0.82800
C597        C  0.18750968  0.22931268  0.96519266     0.97700
O598        O  0.17642852  0.21687175  0.97300686    -0.82800
O599        O  0.14344887  0.20070209  0.99178767    -0.85500
C600        C  0.13944714  0.20379533  0.03192265     1.02200
O601        O  0.13705168  0.21964227  0.04530085    -0.78200
O602        O  0.13732540  0.25645739  0.04688503    -0.78400
C603        C  0.15367596  0.25944568  0.05533433     1.02200
O604        O  0.13884178  0.27411203  0.97255382    -0.85800
O605        O  0.15257878  0.25709302  0.89998030    -0.82800
C606        C  0.15702527  0.24460001  0.87404951     0.97700
O607        O  0.16195070  0.22946436  0.88896935    -0.82800
O608        O  0.12908549  0.21550656  0.91174011    -0.85500
C609        C  0.11443519  0.21404056  0.93232263     1.02200
O610        O  0.11298751  0.21965197  0.97176339    -0.78300
O611        O  0.11548628  0.25656741  0.96780581    -0.78400
C612        C  0.12240538  0.27194209  0.96412400     1.02200
Cr613      Cr  0.15889183  0.25677683  0.96298531     1.93700
Cr614      Cr  0.15239160  0.21707259  0.94354145     1.93200
Cr615      Cr  0.12707439  0.23804777  0.00534500     1.39100
O616        O  0.14609130  0.23717368  0.97071171    -1.23500
O617        O  0.00358029  0.13261915  0.83046895    -0.85800
O618        O  0.98428569  0.10375570  0.85822957    -0.82800
C619        C  0.97349783  0.10925795  0.88769625     0.97700
O620        O  0.95974480  0.11814067  0.87748904    -0.82800
O621        O  0.94183940  0.14504264  0.83543941    -0.85500
C622        C  0.95076018  0.15930198  0.84320179     1.02200
O623        O  0.96617956  0.16132254  0.82671215    -0.78200
O624        O  0.99793861  0.15346660  0.78179660    -0.78400
C625        C  0.00745655  0.14742210  0.81293142     1.02200
O626        O  0.99916745  0.12146894  0.73817427    -0.85800
O627        O  0.97842077  0.09366023  0.76741492    -0.82800
C628        C  0.96483456  0.08549949  0.78181088     0.97700
O629        O  0.95353544  0.09362169  0.80590637    -0.82800
O630        O  0.93812561  0.12169688  0.75832134    -0.85500
C631        C  0.93608363  0.13691593  0.74083150     1.02200
O632        O  0.94612917  0.14984145  0.75161294    -0.78300
O633        O  0.97687525  0.13792276  0.71337955    -0.78400
C634        C  0.99039311  0.12826408  0.70621930     1.02200
Cr635      Cr  0.98991407  0.11394300  0.79834234     1.93700
Cr636      Cr  0.94981286  0.12012109  0.81743767     1.93200
Cr637      Cr  0.97178183  0.14899576  0.77047484     1.39100
O638        O  0.97055171  0.12755596  0.79569105    -1.23500
O639        O  0.00341618  0.90497323  0.68902833    -0.85800
O640        O  0.98391145  0.93372842  0.66193653    -0.82800
C641        C  0.97412838  0.92692943  0.63193013     0.97700
O642        O  0.96052710  0.91774367  0.64203719    -0.82800
O643        O  0.94170711  0.89132534  0.68390581    -0.85500
C644        C  0.95082325  0.87724118  0.67626119     1.02200
O645        O  0.96631042  0.87562848  0.69257369    -0.78200
O646        O  0.99817594  0.88346878  0.73640225    -0.78400
C647        C  0.00751713  0.89005288  0.70552221     1.02200
O648        O  0.99938469  0.91528164  0.78143876    -0.85800
O649        O  0.97773357  0.94284926  0.75373546    -0.82800
C650        C  0.96442769  0.95099560  0.73789000     0.97700
O651        O  0.95353722  0.94283926  0.71265485    -0.82800
O652        O  0.93772272  0.91474229  0.76008752    -0.85500
C653        C  0.93588686  0.89953200  0.77794085     1.02200
O654        O  0.94642165  0.88680579  0.76849875    -0.78300
O655        O  0.97755832  0.89834561  0.80691377    -0.78400
C656        C  0.99129992  0.90780531  0.81362247     1.02200
Cr657      Cr  0.98966271  0.92314689  0.72187203     1.93700
Cr658      Cr  0.94986476  0.91626760  0.70153868     1.93200
Cr659      Cr  0.97204242  0.88769662  0.74910937     1.39100
O660        O  0.97052577  0.90917112  0.72436064    -1.23500
O661        O  0.01147903  0.10542779  0.23240494    -0.85800
O662        O  0.02415112  0.08998126  0.30829512    -0.82800
C663        C  0.03931523  0.08488587  0.29439304     0.97700
O664        O  0.05167936  0.09621268  0.28896354    -0.82800
O665        O  0.06770821  0.12924595  0.27250521    -0.85500
C666        C  0.06541768  0.13255979  0.23177908     1.02200
O667        O  0.04987523  0.13409223  0.21607636    -0.78200
O668        O  0.01335666  0.13331977  0.20890986    -0.78400
C669        C  0.00989296  0.11689750  0.20212020     1.02200
O670        O  0.99367792  0.13270447  0.28278507    -0.85800
O671        O  0.00982131  0.11940837  0.35753063    -0.82800
C672        C  0.02177127  0.11494303  0.38484026     0.97700
O673        O  0.03723175  0.11038951  0.37142154    -0.82800
O674        O  0.05108776  0.14340659  0.34937363    -0.85500
C675        C  0.05252406  0.15798769  0.32839997     1.02200
O676        O  0.04756610  0.15913208  0.28831676    -0.78300
O677        O  0.01093189  0.15638300  0.28578757    -0.78400
C678        C  0.99554906  0.14946943  0.28807135     1.02200
Cr679      Cr  0.01120281  0.11279744  0.29491727     1.93700
Cr680      Cr  0.05044663  0.12007355  0.31826802     1.93200
Cr681      Cr  0.03045222  0.14439299  0.25241924     1.39100
O682        O  0.03074857  0.12585093  0.28856763    -1.23500
O683        O  0.01864411  0.93259053  0.28782171    -0.85800
O684        O  0.03098343  0.94816170  0.21017143    -0.82800
C685        C  0.04597901  0.95317602  0.22494195     0.97700
O686        O  0.05878245  0.94213593  0.22726892    -0.82800
O687        O  0.07463801  0.90885708  0.24401901    -0.85500
C688        C  0.07248872  0.90563550  0.28497978     1.02200
O689        O  0.05694867  0.90404210  0.30100700    -0.78200
O690        O  0.02008899  0.90434844  0.30808351    -0.78400
C691        C  0.01644949  0.92058100  0.31685739     1.02200
O692        O  0.00072375  0.90569219  0.23555766    -0.85800
O693        O  0.01619015  0.91929075  0.16095340    -0.82800
C694        C  0.02806032  0.92301531  0.13265912     0.97700
O695        O  0.04365968  0.92759604  0.14513926    -0.82800
O696        O  0.05706851  0.89438904  0.16713070    -0.85500
C697        C  0.05898615  0.87999291  0.18867456     1.02200
O698        O  0.05475251  0.87923557  0.22921646    -0.78300
O699        O  0.01800102  0.88214175  0.22998239    -0.78400
C700        C  0.00272384  0.88924515  0.22648528     1.02200
Cr701      Cr  0.01809026  0.92560518  0.22401565     1.93700
Cr702      Cr  0.05714104  0.91802165  0.19816601     1.93200
Cr703      Cr  0.03743302  0.89379487  0.26458707     1.39100
O704        O  0.03765111  0.91249155  0.22902362    -1.23500
C705        C  0.04215933  0.06553522  0.28567144    -0.01700
C706        C  0.05899157  0.05846221  0.27456147    -0.09700
C707        C  0.06106023  0.04001695  0.26630390    -0.18600
C708        C  0.04625019  0.02814068  0.26895253     0.03800
C709        C  0.02932426  0.03555907  0.28057533     0.18000
C710        C  0.02746970  0.05392258  0.28840440    -0.20000
C711        C  0.01416886  0.02466822  0.28445301    -0.21200
C712        C  0.01533564  0.00642631  0.27677864    -0.19800
C713        C  0.03161695  0.99870036  0.26430320     0.19400
C714        C  0.04740237  0.00926790  0.26023912     0.01500
C715        C  0.06338745  0.00043206  0.24696812    -0.14500
C716        C  0.06339713  0.98199552  0.23675212    -0.12200
C717        C  0.04752202  0.97202491  0.23957016     0.01100
C718        C  0.03192238  0.98042043  0.25464733    -0.24400
H719        H  0.07058051  0.06718014  0.27231834     0.09100
H720        H  0.07434503  0.03542115  0.25804673     0.12600
H721        H  0.01434081  0.05919058  0.29669107     0.11400
H722        H  0.00128033  0.03030872  0.29344093     0.12600
H723        H  0.00330950  0.99833457  0.27988315     0.11600
H724        H  0.07591549  0.00750022  0.24328005     0.08700
H725        H  0.07563075  0.97569800  0.22530814     0.11900
H726        H  0.01965349  0.97268120  0.25789034     0.13800
C727        C  0.99794156  0.90984134  0.85956046    -0.01700
C728        C  0.01488751  0.91709247  0.86851935    -0.09700
C729        C  0.02078355  0.91928740  0.91225585    -0.18600
C730        C  0.00971167  0.91448524  0.94851359     0.03800
C731        C  0.99256557  0.90707619  0.93895899     0.18000
C732        C  0.98700351  0.90464289  0.89505964    -0.20000
C733        C  0.98083983  0.90241294  0.97322421    -0.21200
C734        C  0.98561103  0.90523934  0.01705839    -0.19800
C735        C  0.00235520  0.91248384  0.02772178     0.19400
C736        C  0.01481052  0.91699228  0.99382562     0.01500
C737        C  0.03174012  0.92377504  0.00696701    -0.14500
C738        C  0.03600323  0.92601934  0.05186410    -0.12200
C739        C  0.02352447  0.92172091  0.08494858     0.01100
C740        C  0.00670828  0.91505590  0.07238967    -0.24400
H741        H  0.02363634  0.92110768  0.84161875     0.09100
H742        H  0.03391751  0.92503721  0.91662731     0.12600
H743        H  0.97383196  0.89904800  0.88858745     0.11400
H744        H  0.96776250  0.89676055  0.96605262     0.12600
H745        H  0.97613360  0.90167790  0.04285379     0.11600
H746        H  0.04202562  0.92724111  0.98340190     0.08700
H747        H  0.04917120  0.93099648  0.06067526     0.11900
H748        H  0.99697231  0.91147836  0.09759969     0.13800
C749        C  0.00848863  0.92466939  0.36052663    -0.01700
C750        C  0.01328523  0.93986981  0.38521277    -0.09700
C751        C  0.00712290  0.94197545  0.42896160    -0.18600
C752        C  0.99579845  0.92894380  0.44884797     0.03800
C753        C  0.99024251  0.91418050  0.42222588     0.18000
C754        C  0.99665718  0.91218115  0.37896666    -0.20000
C755        C  0.97863968  0.90113411  0.43911535    -0.21200
C756        C  0.97267250  0.90210994  0.48248223    -0.19800
C757        C  0.97836162  0.91601795  0.51023270     0.19400
C758        C  0.98999038  0.92969699  0.49413527     0.01500
C759        C  0.99566611  0.94305486  0.52456831    -0.14500
C760        C  0.99035414  0.94247649  0.56922859    -0.12200
C761        C  0.97891003  0.92887187  0.58451727     0.01100
C762        C  0.97279213  0.91591874  0.55449992    -0.24400
H763        H  0.02234866  0.94974589  0.37131223     0.09100
H764        H  0.01157334  0.95376769  0.44659376     0.12600
H765        H  0.99263654  0.90056926  0.35958527     0.11400
H766        H  0.97429779  0.88994528  0.41874518     0.12600
H767        H  0.96383267  0.89166088  0.49470471     0.11600
H768        H  0.00455844  0.95380660  0.51503072     0.08700
H769        H  0.99529668  0.95261883  0.59189695     0.11900
H770        H  0.96417619  0.90515050  0.56608951     0.13800
C771        C  0.00338421  0.11138872  0.15877934    -0.01700
C772        C  0.98511282  0.11215516  0.14935238    -0.09700
C773        C  0.97900391  0.10906734  0.10636111    -0.18600
C774        C  0.99121135  0.10543314  0.07156143     0.03800
C775        C  0.00967955  0.10358144  0.08243149     0.18000
C776        C  0.01557529  0.10659043  0.12586289    -0.20000
C777        C  0.02224775  0.09946851  0.04960766    -0.21200
C778        C  0.01702813  0.09802269  0.00560562    -0.19800
C779        C  0.99918153  0.10093444  0.99341610     0.19400
C780        C  0.98592996  0.10438515  0.02622780     0.01500
C781        C  0.96818732  0.10766275  0.01193836    -0.14500
C782        C  0.96405194  0.10853143  0.96694900    -0.12200
C783        C  0.97731804  0.10577138  0.93483610     0.01100
C784        C  0.99470536  0.10134063  0.94832769    -0.24400
H785        H  0.97560302  0.11564247  0.17510904     0.09100
H786        H  0.96474390  0.11001723  0.10131680     0.12600
H787        H  0.02974483  0.10590232  0.13379300     0.11400
H788        H  0.03628777  0.09782138  0.05786540     0.12600
H789        H  0.02715103  0.09528148  0.98072703     0.11600
H790        H  0.95733497  0.11032827  0.03456085     0.08700
H791        H  0.95047174  0.11184489  0.95727049     0.11900
H792        H  0.00507476  0.09927102  0.92364261     0.13800
C793        C  0.99581019  0.12527625  0.65986700    -0.01700
C794        C  0.01234672  0.11761627  0.64902947    -0.09700
C795        C  0.01715810  0.11504133  0.60469710    -0.18600
C796        C  0.00541479  0.12001404  0.56990611     0.03800
C797        C  0.98863495  0.12771584  0.58145451     0.18000
C798        C  0.98404474  0.13022247  0.62583893    -0.20000
C799        C  0.97647057  0.13298815  0.54872683    -0.21200
C800        C  0.98067568  0.13095179  0.50432907    -0.19800
C801        C  0.99710359  0.12354036  0.49173715     0.19400
C802        C  0.00969580  0.11780903  0.52415328     0.01500
C803        C  0.02602551  0.11028290  0.50921858    -0.14500
C804        C  0.02984696  0.10903425  0.46401029    -0.12200
C805        C  0.01750057  0.11509641  0.43248059     0.01100
C806        C  0.00106535  0.12207870  0.44665765    -0.24400
H807        H  0.02165587  0.11372801  0.67485282     0.09100
H808        H  0.03014137  0.10921962  0.59879608     0.12600
H809        H  0.97111982  0.13604340  0.63384688     0.11400
H810        H  0.96365550  0.13883881  0.55752889     0.12600
H811        H  0.97104718  0.13529933  0.47966021     0.11600
H812        H  0.03616446  0.10539563  0.53154322     0.08700
H813        H  0.04259613  0.10345931  0.45375908     0.11900
H814        H  0.99138238  0.12679003  0.42250765     0.13800
C815        C  0.96316483  0.06592282  0.77301564    -0.01700
C816        C  0.94656351  0.05707587  0.77210077    -0.09700
C817        C  0.94561367  0.03837533  0.76566922    -0.18600
C818        C  0.96137043  0.02788835  0.76110969     0.03800
C819        C  0.97809984  0.03705813  0.76247194     0.18000
C820        C  0.97879758  0.05575348  0.76773310    -0.20000
C821        C  0.99418681  0.02754611  0.75922798    -0.21200
C822        C  0.99413593  0.00901669  0.75507434    -0.19800
C823        C  0.97799220  0.99950845  0.75349912     0.19400
C824        C  0.96131013  0.00870009  0.75584907     0.01500
C825        C  0.94547330  0.99821560  0.75260667    -0.14500
C826        C  0.94629964  0.97946925  0.74699999    -0.12200
C827        C  0.96285969  0.97060823  0.74563500     0.01100
C828        C  0.97857538  0.98078104  0.74916737    -0.24400
H829        H  0.93428641  0.06464310  0.77621340     0.09100
H830        H  0.93243546  0.03244448  0.76513857     0.12600
H831        H  0.99173274  0.06239202  0.76916106     0.11400
H832        H  0.00695631  0.03448863  0.76033723     0.12600
H833        H  0.00686433  0.00206101  0.75295265     0.11600
H834        H  0.93232381  0.00417226  0.75369245     0.08700
H835        H  0.93397174  0.97187429  0.74401294     0.11900
H836        H  0.99146383  0.97409382  0.74717808     0.13800
C837        C  0.13500762  0.18879007  0.06180989    -0.01700
C838        C  0.12713280  0.17326687  0.04424805    -0.09700
C839        C  0.11832396  0.16109314  0.07179813    -0.18600
C840        C  0.11719086  0.16413868  0.11794654     0.03800
C841        C  0.12712750  0.17869719  0.13606840     0.18000
C842        C  0.13571493  0.19100780  0.10790488    -0.20000
C843        C  0.12758153  0.18142288  0.18195530    -0.21200
C844        C  0.11750796  0.17060291  0.21007458    -0.19800
C845        C  0.10617401  0.15735044  0.19273460     0.19400
C846        C  0.10588424  0.15385727  0.14639734     0.01500
C847        C  0.09318598  0.14134458  0.13013336    -0.14500
C848        C  0.08060597  0.13351573  0.15840347    -0.12200
C849        C  0.08081514  0.13728429  0.20378359     0.01100
C850        C  0.09412724  0.14855597  0.22105952    -0.24400
H851        H  0.12663668  0.17115573  0.00872234     0.09100
H852        H  0.11213754  0.14968530  0.05594020     0.12600
H853        H  0.14212689  0.20283577  0.12170027     0.11400
H854        H  0.13541593  0.19227123  0.19608225     0.12600
H855        H  0.11779674  0.17331163  0.24538097     0.11600
H856        H  0.09182362  0.13829121  0.09536585     0.08700
H857        H  0.07023008  0.12501465  0.14452038     0.11900
H858        H  0.09398320  0.15186629  0.25609938     0.13800
C859        C  0.09902121  0.20469422  0.91198270    -0.01700
C860        C  0.09607772  0.20483763  0.86612929    -0.09700
C861        C  0.08125051  0.19591566  0.84789302    -0.18600
C862        C  0.06916238  0.18621476  0.87515322     0.03800
C863        C  0.07270755  0.18567927  0.92143867     0.18000
C864        C  0.08723746  0.19512891  0.93929469    -0.20000
C865        C  0.06187900  0.17552989  0.94980825    -0.21200
C866        C  0.04757677  0.16570823  0.93322527    -0.19800
C867        C  0.04338596  0.16627417  0.88809009     0.19400
C868        C  0.05385369  0.17681568  0.85840053     0.01500
C869        C  0.04832805  0.17765375  0.81356700    -0.14500
C870        C  0.03315416  0.16829793  0.79898683    -0.12200
C871        C  0.02331084  0.15751957  0.82827306     0.01100
C872        C  0.02858490  0.15648796  0.87265859    -0.24400
H873        H  0.10513534  0.21204514  0.84441897     0.09100
H874        H  0.07976903  0.19656324  0.81237092     0.12600
H875        H  0.08966747  0.19464584  0.97474550     0.11400
H876        H  0.06463292  0.17499698  0.98506987     0.12600
H877        H  0.03957566  0.15779464  0.95601155     0.11600
H878        H  0.05526520  0.18568298  0.78925090     0.08700
H879        H  0.02923759  0.16929525  0.76449503     0.11900
H880        H  0.02083378  0.14836761  0.89557730     0.13800
C881        C  0.29870959  0.22874175  0.03524736    -0.01700
C882        C  0.29173245  0.24271958  0.00955977    -0.09700
C883        C  0.27417620  0.24214256  0.99399543    -0.18600
C884        C  0.26271300  0.22763800  0.00457711     0.03800
C885        C  0.26965957  0.21362839  0.03160378     0.18000
C886        C  0.28771551  0.21403560  0.04565921    -0.20000
C887        C  0.25836411  0.19965313  0.04542976    -0.21200
C888        C  0.24021405  0.19962001  0.03419548    -0.19800
C889        C  0.23301396  0.21320975  0.00747168     0.19400
C890        C  0.24439675  0.22699637  0.99088683     0.01500
C891        C  0.23692127  0.23971703  0.96162397    -0.14500
C892        C  0.21867455  0.23974244  0.95237301    -0.12200
C893        C  0.20711163  0.22706378  0.97150368     0.01100
C894        C  0.21446615  0.21339298  0.99790696    -0.24400
H895        H  0.29999561  0.25421608  0.00126488     0.09100
H896        H  0.26981772  0.25359721  0.97501281     0.12600
H897        H  0.29299489  0.20331248  0.06615997     0.11400
H898        H  0.26348430  0.18894526  0.06619179     0.12600
H899        H  0.23173906  0.18892323  0.04663570     0.11600
H900        H  0.24481897  0.24989167  0.94532632     0.08700
H901        H  0.21353960  0.25008400  0.93055845     0.11900
H902        H  0.20572378  0.20330170  0.01220115     0.13800
C903        C  0.11025534  0.24795063  0.43265158    -0.01700
C904        C  0.09704791  0.25095916  0.40071796    -0.09700
C905        C  0.08704280  0.23676061  0.38369507    -0.18600
C906        C  0.08975719  0.21897885  0.39877146     0.03800
C907        C  0.10298501  0.21602847  0.43190381     0.18000
C908        C  0.11329239  0.23044167  0.44796485    -0.20000
C909        C  0.10572899  0.19876070  0.44898590    -0.21200
C910        C  0.09563913  0.18430059  0.43369498    -0.19800
C911        C  0.08279812  0.18670555  0.40037729     0.19400
C912        C  0.07976774  0.20407318  0.38223547     0.01500
C913        C  0.06705032  0.20574769  0.34777256    -0.14500
C914        C  0.05796419  0.19081170  0.33157445    -0.12200
C915        C  0.06100416  0.17374153  0.34931374     0.01100
C916        C  0.07322973  0.17178127  0.38428471    -0.24400
H917        H  0.09455289  0.26440567  0.38841439     0.09100
H918        H  0.07717237  0.24025134  0.35922603     0.12600
H919        H  0.12340917  0.22810691  0.47310512     0.11400
H920        H  0.11569425  0.19643563  0.47446819     0.12600
H921        H  0.09805893  0.17110724  0.44762082     0.11600
H922        H  0.06406771  0.21829834  0.33180573     0.08700
H923        H  0.04860358  0.19263874  0.30448273     0.11900
H924        H  0.07582999  0.15854119  0.39776764     0.13800
C925        C  0.14875777  0.27004046  0.59865596    -0.01700
C926        C  0.16419844  0.26103787  0.61276468    -0.09700
C927        C  0.16613178  0.25594986  0.65713969    -0.18600
C928        C  0.15275752  0.26013886  0.68878966     0.03800
C929        C  0.13745472  0.26983790  0.67417361     0.18000
C930        C  0.13545112  0.27430073  0.62951167    -0.20000
C931        C  0.12432890  0.27536739  0.70426133    -0.21200
C932        C  0.12617828  0.27172689  0.74901994    -0.19800
C933        C  0.14084603  0.26189149  0.76440103     0.19400
C934        C  0.15412339  0.25547342  0.73452197     0.01500
C935        C  0.16799707  0.24455141  0.75179704    -0.14500
C936        C  0.16883268  0.24063532  0.79709725    -0.12200
C937        C  0.15616344  0.24784921  0.82622572     0.01100
C938        C  0.14221203  0.25836598  0.80969600    -0.24400
H939        H  0.17473781  0.25781988  0.58938682     0.09100
H940        H  0.17838380  0.24915323  0.66590448     0.12600
H941        H  0.12364540  0.28163812  0.61892138     0.11400
H942        H  0.11271119  0.28286277  0.69320475     0.12600
H943        H  0.11596418  0.27648492  0.77172404     0.11600
H944        H  0.17818276  0.23864574  0.73104839     0.08700
H945        H  0.17958690  0.23227171  0.80951899     0.11900
H946        H  0.13214335  0.26357780  0.83226390     0.13800
C947        C  0.16319245  0.28796669  0.32618105    -0.01700
C948        C  0.16935053  0.27111677  0.31257388    -0.09700
C949        C  0.17045758  0.26686281  0.26773465    -0.18600
C950        C  0.16487563  0.27925848  0.23505412     0.03800
C951        C  0.15888228  0.29646889  0.24919042     0.18000
C952        C  0.15858067  0.30082410  0.29440919    -0.20000
C953        C  0.15230924  0.30885863  0.21836366    -0.21200
C954        C  0.15059142  0.30414860  0.17399037    -0.19800
C955        C  0.15601944  0.28718292  0.15925900     0.19400
C956        C  0.16403350  0.27480752  0.18919102     0.01500
C957        C  0.17036450  0.25829179  0.17207054    -0.14500
C958        C  0.16768309  0.25377086  0.12777612    -0.12200
C959        C  0.15861547  0.26547876  0.09960479     0.01100
C960        C  0.15306737  0.28227212  0.11498191    -0.24400
H961        H  0.17299673  0.26103196  0.33683626     0.09100
H962        H  0.17491026  0.25347002  0.25994081     0.12600
H963        H  0.15357525  0.31380634  0.30503778     0.11400
H964        H  0.14776650  0.32200410  0.22893521     0.12600
H965        H  0.14476602  0.31374414  0.15115815     0.11600
H966        H  0.17731910  0.24853833  0.19204805     0.08700
H967        H  0.17210858  0.24077678  0.11583537     0.11900
H968        H  0.14619320  0.29135144  0.09260486     0.13800
C969        C  0.33926639  0.28886421  0.69592856    -0.01700
C970        C  0.33971488  0.30246869  0.72782310    -0.09700
C971        C  0.34038752  0.29820876  0.77282410    -0.18600
C972        C  0.34068511  0.28009487  0.78712415     0.03800
C973        C  0.33920980  0.26640610  0.75448465     0.18000
C974        C  0.33840735  0.27089686  0.70954439    -0.20000
C975        C  0.33921426  0.24827358  0.76664147    -0.21200
C976        C  0.34134121  0.24335179  0.81066368    -0.19800
C977        C  0.34347571  0.25646061  0.84343367     0.19400
C978        C  0.34290484  0.27504558  0.83235374     0.01500
C979        C  0.34509492  0.28772490  0.86692247    -0.14500
C980        C  0.34810508  0.28214209  0.91036724    -0.12200
C981        C  0.34899659  0.26390357  0.92040173     0.01100
C982        C  0.34654329  0.25109099  0.88724127    -0.24400
H983        H  0.34031309  0.31644625  0.71794053     0.09100
H984        H  0.34111888  0.30938800  0.79539469     0.12600
H985        H  0.33776552  0.26028729  0.68494458     0.11400
H986        H  0.33795791  0.23782050  0.74182045     0.12600
H987        H  0.34164560  0.22919301  0.81903353     0.11600
H988        H  0.34480209  0.30201375  0.86148962     0.08700
H989        H  0.35004075  0.29209565  0.93615663     0.11900
H990        H  0.34727419  0.23693194  0.89557188     0.13800
C991        C  0.35140247  0.27448641  0.42183110    -0.01700
C992        C  0.33644008  0.26472841  0.40759325    -0.09700
C993        C  0.33482577  0.25954023  0.36320756    -0.18600
C994        C  0.34810258  0.26426321  0.33173151     0.03800
C995        C  0.36286665  0.27477635  0.34643885     0.18000
C996        C  0.36446257  0.27953870  0.39101891    -0.20000
C997        C  0.37599016  0.28058149  0.31664007    -0.21200
C998        C  0.37478248  0.27621872  0.27213458    -0.19800
C999        C  0.36065931  0.26559601  0.25668405     0.19400
C1000       C  0.34725299  0.25914780  0.28619974     0.01500
C1001       C  0.33380042  0.24770089  0.26882423    -0.14500
C1002       C  0.33358692  0.24314732  0.22385149    -0.12200
C1003       C  0.34649540  0.25017106  0.19507956     0.01100
C1004       C  0.35997849  0.26130949  0.21168433    -0.24400
H1005       H  0.32610007  0.26087302  0.43094016     0.09100
H1006       H  0.32298677  0.25203817  0.35445478     0.12600
H1007       H  0.37588315  0.28746391  0.40171138     0.11400
H1008       H  0.38719916  0.28868381  0.32777868     0.12600
H1009       H  0.38506702  0.28104521  0.24970069     0.11600
H1010       H  0.32344536  0.24189253  0.28920192     0.08700
H1011       H  0.32314260  0.23438252  0.21138751     0.11900
H1012       H  0.37022066  0.26643094  0.18945525     0.13800
C1013       C  0.29512693  0.31008139  0.54328551    -0.01700
C1014       C  0.28768692  0.32569843  0.52497884    -0.09700
C1015       C  0.26916640  0.32686317  0.51686008    -0.18600
C1016       C  0.25753770  0.31232061  0.52669590     0.03800
C1017       C  0.26527076  0.29660382  0.54532777     0.18000
C1018       C  0.28367878  0.29572760  0.55366927    -0.20000
C1019       C  0.25470059  0.28157277  0.55482209    -0.21200
C1020       C  0.23661767  0.28147767  0.54461415    -0.19800
C1021       C  0.22859329  0.29654413  0.52549523     0.19400
C1022       C  0.23868342  0.31244118  0.51754935     0.01500
C1023       C  0.22943269  0.32751146  0.50019123    -0.14500
C1024       C  0.21124119  0.32635005  0.48850502    -0.12200
C1025       C  0.20192601  0.31013700  0.49340205     0.01100
C1026       C  0.21056209  0.29553546  0.51318488    -0.24400
H1027       H  0.29620923  0.33696710  0.51650331     0.09100
H1028       H  0.26436128  0.33913772  0.50209493     0.12600
H1029       H  0.28913977  0.28354134  0.56796757     0.11400
H1030       H  0.26056035  0.26960483  0.56923732     0.12600
H1031       H  0.22889530  0.26943114  0.55121265     0.11600
H1032       H  0.23598167  0.34024570  0.49481213     0.08700
H1033       H  0.20467441  0.33789368  0.47394499     0.11900
H1034       H  0.20323985  0.28309886  0.51821766     0.13800
C1035       C  0.79979039  0.72593018  0.54778809    -0.01700
C1036       C  0.79063761  0.70949505  0.54457012    -0.09700
C1037       C  0.77230080  0.70901172  0.53310288    -0.18600
C1038       C  0.76263785  0.72503384  0.52410701     0.03800
C1039       C  0.77227002  0.74149331  0.52648382     0.18000
C1040       C  0.79041697  0.74175105  0.53813000    -0.20000
C1041       C  0.76377965  0.75781836  0.51761990    -0.21200
C1042       C  0.74574156  0.75831744  0.50711065    -0.19800
C1043       C  0.73567515  0.74250539  0.50515662     0.19400
C1044       C  0.74385163  0.72556095  0.51323721     0.01500
C1045       C  0.73273927  0.71012806  0.51050251    -0.14500
C1046       C  0.71429273  0.71161515  0.50100080    -0.12200
C1047       C  0.70637158  0.72847491  0.49368149     0.01100
C1048       C  0.71734745  0.74375482  0.49552798    -0.24400
H1049       H  0.79756828  0.69704374  0.55155735     0.09100
H1050       H  0.76598672  0.69599238  0.53170281     0.12600
H1051       H  0.79734143  0.75455743  0.53958069     0.11400
H1052       H  0.77112977  0.77037021  0.51919699     0.12600
H1053       H  0.73956701  0.77124578  0.50081797     0.11600
H1054       H  0.73794377  0.69680041  0.51590241     0.08700
H1055       H  0.70620991  0.69954032  0.49956533     0.11900
H1056       H  0.71155465  0.75691694  0.48995436     0.13800
C1057       C  0.89543097  0.78543510  0.57200184    -0.01700
C1058       C  0.91328743  0.78338763  0.58536616    -0.09700
C1059       C  0.92340321  0.79820561  0.59907727    -0.18600
C1060       C  0.91590950  0.81567170  0.60005460     0.03800
C1061       C  0.89785543  0.81768462  0.58588567     0.18000
C1062       C  0.88791153  0.80270686  0.57185485    -0.20000
C1063       C  0.88966192  0.83458569  0.58664539    -0.21200
C1064       C  0.89884050  0.84951654  0.60245589    -0.19800
C1065       C  0.91651193  0.84796921  0.61746739     0.19400
C1066       C  0.92545997  0.83111774  0.61562484     0.01500
C1067       C  0.94345114  0.83044699  0.63025020    -0.14500
C1068       C  0.95184016  0.84560524  0.64804568    -0.12200
C1069       C  0.94267478  0.86196864  0.65182173     0.01100
C1070       C  0.92512990  0.86312301  0.63538403    -0.24400
H1071       H  0.91943284  0.77021228  0.58585208     0.09100
H1072       H  0.93694635  0.79548200  0.60943436     0.12600
H1073       H  0.87411587  0.80450917  0.56151098     0.11400
H1074       H  0.87592644  0.83621255  0.57570783     0.12600
H1075       H  0.89197949  0.86233733  0.60345796     0.11600
H1076       H  0.95134044  0.81834294  0.62901871     0.08700
H1077       H  0.96545180  0.84432568  0.66009262     0.11900
H1078       H  0.91791815  0.87572485  0.63776217     0.13800
C1079       C  0.64984543  0.78040751  0.12117421    -0.01700
C1080       C  0.64658636  0.79300330  0.15470515    -0.09700
C1081       C  0.64955312  0.78880255  0.19894583    -0.18600
C1082       C  0.65573545  0.77163403  0.21157875     0.03800
C1083       C  0.65916632  0.75884817  0.17756547     0.18000
C1084       C  0.65646087  0.76340952  0.13271766    -0.20000
C1085       C  0.66481421  0.74148943  0.18871042    -0.21200
C1086       C  0.66639688  0.73633774  0.23295181    -0.19800
C1087       C  0.66270630  0.74851822  0.26714963     0.19400
C1088       C  0.65794033  0.76652580  0.25681853     0.01500
C1089       C  0.65518280  0.77856721  0.29230283    -0.14500
C1090       C  0.65576202  0.77270917  0.33598423    -0.12200
C1091       C  0.65925201  0.75467648  0.34622909     0.01100
C1092       C  0.66327869  0.74273609  0.31162043    -0.24400
H1093       H  0.64168825  0.80630982  0.14673287     0.09100
H1094       H  0.64642616  0.79925331  0.22250072     0.12600
H1095       H  0.65901134  0.75357307  0.10695100     0.11400
H1096       H  0.66755861  0.73167680  0.16304509     0.12600
H1097       H  0.67029234  0.72265302  0.24046942     0.11600
H1098       H  0.65235151  0.79265288  0.28755073     0.08700
H1099       H  0.65304412  0.78240111  0.36192495     0.11900
H1100       H  0.66634939  0.72883284  0.31914967     0.13800
C1101       C  0.66151638  0.79547120  0.84429952    -0.01700
C1102       C  0.67575487  0.78593540  0.82548931    -0.09700
C1103       C  0.67490801  0.78024597  0.78125123    -0.18600
C1104       C  0.65948907  0.78355789  0.75502535     0.03800
C1105       C  0.64501889  0.79297945  0.77495966     0.18000
C1106       C  0.64631143  0.79907076  0.81866946    -0.20000
C1107       C  0.62912638  0.79599189  0.75157993    -0.21200
C1108       C  0.62712288  0.78961318  0.70870212    -0.19800
C1109       C  0.64111619  0.78043215  0.68784909     0.19400
C1110       C  0.65765769  0.77756252  0.71021449     0.01500
C1111       C  0.67155425  0.76883449  0.68663848    -0.14500
C1112       C  0.66894318  0.76288809  0.64310659    -0.12200
C1113       C  0.65238835  0.76521249  0.62208034     0.01100
C1114       C  0.63858691  0.77406755  0.64461149    -0.24400
H1115       H  0.68757292  0.78293863  0.84497124     0.09100
H1116       H  0.68632485  0.77294901  0.76883903     0.12600
H1117       H  0.63507266  0.80612616  0.83342351     0.11400
H1118       H  0.61804638  0.80309333  0.76682658     0.12600
H1119       H  0.61454150  0.79192098  0.69167504     0.11600
H1120       H  0.68460582  0.76651990  0.70083776     0.08700
H1121       H  0.67981288  0.75613870  0.62611315     0.11900
H1122       H  0.62582319  0.77617601  0.62821598     0.13800
C1123       C  0.84955021  0.76342382  0.42511903    -0.01700
C1124       C  0.83582888  0.75652328  0.39857819    -0.09700
C1125       C  0.83390483  0.76234155  0.35470976    -0.18600
C1126       C  0.84556450  0.77548649  0.33670829     0.03800
C1127       C  0.85869235  0.78316127  0.36519800     0.18000
C1128       C  0.86072309  0.77688667  0.40853846    -0.20000
C1129       C  0.86992909  0.79689841  0.35021406    -0.21200
C1130       C  0.86859445  0.80311436  0.30708608    -0.19800
C1131       C  0.85638363  0.79534361  0.27760892     0.19400
C1132       C  0.84480524  0.78128035  0.29161964     0.01500
C1133       C  0.83343050  0.77334124  0.25952545    -0.14500
C1134       C  0.83362907  0.77916771  0.21540478    -0.12200
C1135       C  0.84492896  0.79321420  0.20220031     0.01100
C1136       C  0.85608935  0.80132392  0.23374221    -0.24400
H1137       H  0.82703614  0.74613394  0.41124382     0.09100
H1138       H  0.82322593  0.75633952  0.33571830     0.12600
H1139       H  0.87117488  0.78240781  0.42954085     0.11400
H1140       H  0.87982606  0.80287584  0.37200842     0.12600
H1141       H  0.87747914  0.81380178  0.29641255     0.11600
H1142       H  0.82462570  0.76229135  0.26725675     0.08700
H1143       H  0.82506274  0.77252102  0.19149601     0.11900
H1144       H  0.86512557  0.81201846  0.22385702     0.13800
C1145       C  0.85965137  0.77862993  0.92388365    -0.01700
C1146       C  0.86702126  0.78915970  0.88998926    -0.09700
C1147       C  0.86545671  0.78411199  0.84584481    -0.18600
C1148       C  0.85648136  0.76814333  0.83364751     0.03800
C1149       C  0.84867330  0.75759491  0.86786037     0.18000
C1150       C  0.85033015  0.76288578  0.91256605    -0.20000
C1151       C  0.83931119  0.74185669  0.85712600    -0.21200
C1152       C  0.83760822  0.73633621  0.81312836    -0.19800
C1153       C  0.84537839  0.74631058  0.77873982     0.19400
C1154       C  0.85498004  0.76234088  0.78871078     0.01500
C1155       C  0.86285258  0.77184203  0.75326461    -0.14500
C1156       C  0.86104748  0.76594010  0.70989207    -0.12200
C1157       C  0.85143312  0.75028788  0.69971697     0.01100
C1158       C  0.84370500  0.74039033  0.73441802    -0.24400
H1159       H  0.87410652  0.80149611  0.89750573     0.09100
H1160       H  0.87142842  0.79314691  0.82214324     0.12600
H1161       H  0.84447886  0.75467989  0.93849791     0.11400
H1162       H  0.83324737  0.73376015  0.88294352     0.12600
H1163       H  0.83024890  0.72411891  0.80597780     0.11600
H1164       H  0.87067173  0.78388868  0.75771289     0.08700
H1165       H  0.86746982  0.77372573  0.68401551     0.11900
H1166       H  0.83631392  0.72821391  0.72695941     0.13800
C1167       C  0.80137451  0.81507393  0.04406227    -0.01700
C1168       C  0.79527145  0.81631319  0.00034525    -0.09700
C1169       C  0.77695573  0.81767036  0.99111958    -0.18600
C1170       C  0.76405996  0.81711116  0.02554706     0.03800
C1171       C  0.77039358  0.81572383  0.06990993     0.18000
C1172       C  0.78891415  0.81526706  0.07879025    -0.20000
C1173       C  0.75820499  0.81399354  0.10495874    -0.21200
C1174       C  0.73987075  0.81285823  0.09679691    -0.19800
C1175       C  0.73318835  0.81413934  0.05352429     0.19400
C1176       C  0.74514439  0.81702983  0.01746330     0.01500
C1177       C  0.73762075  0.81951533  0.97485589    -0.14500
C1178       C  0.71911858  0.81837277  0.96808920    -0.12200
C1179       C  0.70751286  0.81437811  0.00318390     0.01100
C1180       C  0.71462021  0.81238902  0.04596008    -0.24400
H1181       H  0.80474100  0.81601596  0.97312271     0.09100
H1182       H  0.77327571  0.81832834  0.95659636     0.12600
H1183       H  0.79362455  0.81392106  0.11264996     0.11400
H1184       H  0.76292012  0.81289719  0.13883172     0.12600
H1185       H  0.73084771  0.81093243  0.12455242     0.11600
H1186       H  0.74569113  0.82247294  0.94610979     0.08700
H1187       H  0.71388981  0.82004999  0.93483499     0.11900
H1188       H  0.70565564  0.80957151  0.07339718     0.13800
C1189       C  0.92099503  0.89568542  0.80811342    -0.01700
C1190       C  0.91965909  0.90433116  0.84905712    -0.09700
C1191       C  0.90797582  0.89777507  0.88156362    -0.18600
C1192       C  0.89741382  0.88224844  0.87375309     0.03800
C1193       C  0.89816433  0.87430500  0.83088698     0.18000
C1194       C  0.90983980  0.88110207  0.79869047    -0.20000
C1195       C  0.88812467  0.85893334  0.82113916    -0.21200
C1196       C  0.87826621  0.85044619  0.85398662    -0.19800
C1197       C  0.87816653  0.85720893  0.89721007     0.19400
C1198       C  0.88712520  0.87358138  0.90751216     0.01500
C1199       C  0.88639072  0.87979614  0.95186621    -0.14500
C1200       C  0.87885588  0.86916407  0.98521868    -0.12200
C1201       C  0.87142923  0.85245079  0.97494861     0.01100
C1202       C  0.87030626  0.84694205  0.93086642    -0.24400
H1203       H  0.92841866  0.91551022  0.85684057     0.09100
H1204       H  0.90808505  0.90466360  0.91297250     0.12600
H1205       H  0.91101190  0.87441024  0.76684315     0.11400
H1206       H  0.88852924  0.85297843  0.78835100     0.12600
H1207       H  0.87130413  0.83807496  0.84596592     0.11600
H1208       H  0.89236538  0.89229402  0.96218628     0.08700
H1209       H  0.87991969  0.87344494  0.01945789     0.11900
H1210       H  0.86469512  0.83383916  0.92330215     0.13800
C1211       C  0.91044060  0.83243134  0.12936888    -0.01700
C1212       C  0.92653260  0.82293018  0.13418772    -0.09700
C1213       C  0.94183743  0.83130993  0.15109805    -0.18600
C1214       C  0.94156783  0.84961817  0.16363967     0.03800
C1215       C  0.92513668  0.85911879  0.15909315     0.18000
C1216       C  0.90983602  0.85048368  0.14242654    -0.20000
C1217       C  0.92409511  0.87729209  0.17052956    -0.21200
C1218       C  0.93906204  0.88632904  0.18631477    -0.19800
C1219       C  0.95543034  0.87740050  0.19119329     0.19400
C1220       C  0.95697821  0.85891040  0.18009097     0.01500
C1221       C  0.97390445  0.85063082  0.18574480    -0.14500
C1222       C  0.98864436  0.86037130  0.20134160    -0.12200
C1223       C  0.98702015  0.87860984  0.21191753     0.01100
C1224       C  0.97031109  0.88697456  0.20689881    -0.24400
H1225       H  0.92741682  0.80899115  0.12412664     0.09100
H1226       H  0.95371400  0.82314580  0.15338529     0.12600
H1227       H  0.89750840  0.85802869  0.13858757     0.11400
H1228       H  0.91162487  0.88461137  0.16699942     0.12600
H1229       H  0.93783072  0.90043284  0.19468097     0.11600
H1230       H  0.97622500  0.83667970  0.17824318     0.08700
H1231       H  0.00140986  0.85359931  0.20478725     0.11900
H1232       H  0.96886694  0.90110822  0.21480331     0.13800
C1233       C  0.51995903  0.87997597  0.84251824    -0.01700
C1234       C  0.52018681  0.86122085  0.84409429    -0.09700
C1235       C  0.53536311  0.85206597  0.85902934    -0.18600
C1236       C  0.55100929  0.86144975  0.87223177     0.03800
C1237       C  0.55068530  0.88052116  0.87042295     0.18000
C1238       C  0.53523039  0.88954507  0.85599909    -0.20000
C1239       C  0.56578719  0.89048456  0.88295116    -0.21200
C1240       C  0.58125857  0.88190588  0.89750613    -0.19800
C1241       C  0.58202735  0.86314110  0.89986258     0.19400
C1242       C  0.56692337  0.85263687  0.88717393     0.01500
C1243       C  0.56839729  0.83375540  0.89019414    -0.14500
C1244       C  0.58397209  0.82567985  0.90606534    -0.12200
C1245       C  0.59871486  0.83602772  0.91923065     0.01100
C1246       C  0.59773735  0.85479607  0.91545651    -0.24400
H1247       H  0.50847363  0.85358927  0.83427176     0.09100
H1248       H  0.53439413  0.83762458  0.85973474     0.12600
H1249       H  0.53518179  0.90410251  0.85465829     0.11400
H1250       H  0.56562530  0.90502827  0.88154694     0.12600
H1251       H  0.59268456  0.89001191  0.90713839     0.11600
H1252       H  0.55766985  0.82478839  0.88103158     0.08700
H1253       H  0.58436534  0.81116845  0.90860841     0.11900
H1254       H  0.60900026  0.86296357  0.92597561     0.13800
C1255       C  0.43811703  0.17612686  0.67439328    -0.01700
C1256       C  0.44780440  0.19162660  0.66334592    -0.09700
C1257       C  0.43918102  0.20680348  0.64633111    -0.18600
C1258       C  0.42038825  0.20708732  0.64011528     0.03800
C1259       C  0.41057528  0.19138142  0.65175943     0.18000
C1260       C  0.41946627  0.17611287  0.66827132    -0.20000
C1261       C  0.39190716  0.19105200  0.64729281    -0.21200
C1262       C  0.38274437  0.20592148  0.63109486    -0.19800
C1263       C  0.39201219  0.22147785  0.61859996     0.19400
C1264       C  0.41096208  0.22235810  0.62299909     0.01500
C1265       C  0.41959226  0.23846858  0.60990066    -0.14500
C1266       C  0.40981265  0.25300047  0.59310602    -0.12200
C1267       C  0.39117098  0.25196770  0.58839072     0.01100
C1268       C  0.38238490  0.23614532  0.60147133    -0.24400
H1269       H  0.46219187  0.19208146  0.66803776     0.09100
H1270       H  0.44759348  0.21815498  0.63878028     0.12600
H1271       H  0.41175755  0.16431968  0.67732486     0.11400
H1272       H  0.38431861  0.17919792  0.65644036     0.12600
H1273       H  0.36829073  0.20520200  0.62805351     0.11600
H1274       H  0.43388613  0.24023884  0.61197283     0.08700
H1275       H  0.41693408  0.26503956  0.58324114     0.11900
H1276       H  0.36793277  0.23523477  0.59845740     0.13800
C1277       C  0.41840914  0.13578771  0.81697494    -0.01700
C1278       C  0.41791448  0.12997989  0.86096688    -0.09700
C1279       C  0.40543241  0.13731356  0.89053275    -0.18600
C1280       C  0.39354926  0.15108767  0.87676181     0.03800
C1281       C  0.39332182  0.15571192  0.83101080     0.18000
C1282       C  0.40550142  0.14783005  0.80165052    -0.20000
C1283       C  0.38208224  0.16932767  0.81539437    -0.21200
C1284       C  0.37222690  0.17966847  0.84482243    -0.19800
C1285       C  0.37324081  0.17644834  0.89040130     0.19400
C1286       C  0.38311625  0.16154266  0.90697756     0.01500
C1287       C  0.38316498  0.15867836  0.95334905    -0.14500
C1288       C  0.37544405  0.17120449  0.98210513    -0.12200
C1289       C  0.36742192  0.18680585  0.96545697     0.01100
C1290       C  0.36552473  0.18885587  0.91963423    -0.24400
H1291       H  0.42796756  0.12073385  0.87318515     0.09100
H1292       H  0.40621101  0.13280679  0.92443130     0.12600
H1293       H  0.40609055  0.15236680  0.76746637     0.11400
H1294       H  0.38172635  0.17270864  0.78043937     0.12600
H1295       H  0.36445037  0.19080992  0.83201763     0.11600
H1296       H  0.38977048  0.14735695  0.96845023     0.08700
H1297       H  0.37694982  0.16932768  0.01752611     0.11900
H1298       H  0.35908431  0.20081554  0.90669069     0.13800
C1299       C  0.46246616  0.97129380  0.77797685    -0.01700
C1300       C  0.44612742  0.97987265  0.76978167    -0.09700
C1301       C  0.44565957  0.99828673  0.75999960    -0.18600
C1302       C  0.46157699  0.00871206  0.75970942     0.03800
C1303       C  0.47803450  0.99974820  0.76839427     0.18000
C1304       C  0.47833420  0.98124785  0.77639406    -0.20000
C1305       C  0.49412987  0.00932822  0.77029875    -0.21200
C1306       C  0.49426105  0.02780684  0.76491310    -0.19800
C1307       C  0.47835278  0.03710577  0.75648823     0.19400
C1308       C  0.46181417  0.02772689  0.75255838     0.01500
C1309       C  0.44633400  0.03786966  0.74200991    -0.14500
C1310       C  0.44724381  0.05656835  0.73679907    -0.12200
C1311       C  0.46348475  0.06572154  0.74263625     0.01100
C1312       C  0.47896967  0.05582342  0.75214211    -0.24400
H1313       H  0.43373002  0.97230234  0.77072399     0.09100
H1314       H  0.43265451  0.00407696  0.75399040     0.12600
H1315       H  0.49098827  0.97463948  0.78329757     0.11400
H1316       H  0.50667981  0.00252566  0.77699116     0.12600
H1317       H  0.50691500  0.03489410  0.76749773     0.11600
H1318       H  0.43339781  0.03171140  0.73730245     0.08700
H1319       H  0.43515401  0.06391767  0.72874188     0.11900
H1320       H  0.49170486  0.06272215  0.75558851     0.13800
C1321       C  0.56115297  0.86102488  0.37534869    -0.01700
C1322       C  0.55238159  0.84438188  0.37826826    -0.09700
C1323       C  0.56065813  0.82956983  0.39825957    -0.18600
C1324       C  0.57818063  0.83084598  0.41593487     0.03800
C1325       C  0.58685778  0.84785734  0.41381286     0.18000
C1326       C  0.57831164  0.86266853  0.39398497    -0.20000
C1327       C  0.60422572  0.84992703  0.43054231    -0.21200
C1328       C  0.61340679  0.83537358  0.44825351    -0.19800
C1329       C  0.60544594  0.81835921  0.44993203     0.19400
C1330       C  0.58760971  0.81583989  0.43457237     0.01500
C1331       C  0.58021840  0.79834375  0.43780990    -0.14500
C1332       C  0.59038012  0.78390543  0.45391856    -0.12200
C1333       C  0.60817805  0.78638301  0.46756848     0.01100
C1334       C  0.61543951  0.80378050  0.46615420    -0.24400
H1335       H  0.53911847  0.84266469  0.36429174     0.09100
H1336       H  0.55312760  0.81722078  0.39862800     0.12600
H1337       H  0.58529679  0.87541958  0.39202761     0.11400
H1338       H  0.61089813  0.86285442  0.42922548     0.12600
H1339       H  0.62695573  0.83740194  0.46019970     0.11600
H1340       H  0.56670243  0.79534916  0.42768211     0.08700
H1341       H  0.58433218  0.77068381  0.45504047     0.11900
H1342       H  0.62912503  0.80599212  0.47693622     0.13800
C1343       C  0.58427156  0.90096931  0.22625284    -0.01700
C1344       C  0.59885520  0.89088644  0.24106746    -0.09700
C1345       C  0.61163084  0.88451805  0.21119419    -0.18600
C1346       C  0.60976440  0.88758778  0.16514766     0.03800
C1347       C  0.59539322  0.89874393  0.15074629     0.18000
C1348       C  0.58297669  0.90555770  0.18147598    -0.20000
C1349       C  0.59260885  0.90176889  0.10549359    -0.21200
C1350       C  0.60271239  0.89262778  0.07405131    -0.19800
C1351       C  0.61605191  0.88054919  0.08721370     0.19400
C1352       C  0.62052985  0.87864786  0.13277298     0.01500
C1353       C  0.63465566  0.86676006  0.14394040    -0.14500
C1354       C  0.64227683  0.85551470  0.11193978    -0.12200
C1355       C  0.63631242  0.85615276  0.06811938     0.01100
C1356       C  0.62394410  0.86929535  0.05545020    -0.24400
H1357       H  0.59978702  0.88702368  0.27563488     0.09100
H1358       H  0.62211071  0.87625915  0.22486809     0.12600
H1359       H  0.57140773  0.91306527  0.17007291     0.11400
H1360       H  0.58184174  0.91041809  0.09432243     0.12600
H1361       H  0.59951146  0.89438657  0.03927157     0.11600
H1362       H  0.63947217  0.86520764  0.17739884     0.08700
H1363       H  0.65187398  0.84540433  0.12207997     0.11900
H1364       H  0.61936386  0.86972203  0.02131443     0.13800
C1365       C  0.50817023  0.91306061  0.16707210    -0.01700
C1366       C  0.52115378  0.91456833  0.13367458    -0.09700
C1367       C  0.51628117  0.91844047  0.08995435    -0.18600
C1368       C  0.49808785  0.92058685  0.07793435     0.03800
C1369       C  0.48493609  0.91839892  0.11171926     0.18000
C1370       C  0.49007379  0.91504838  0.15584690    -0.20000
C1371       C  0.46670419  0.91932149  0.10117823    -0.21200
C1372       C  0.46119973  0.92217938  0.05772875    -0.19800
C1373       C  0.47377495  0.92467963  0.02385337     0.19400
C1374       C  0.49241449  0.92437089  0.03352988     0.01500
C1375       C  0.50448024  0.92778005  0.99824964    -0.14500
C1376       C  0.49828309  0.93035538  0.95487152    -0.12200
C1377       C  0.47992731  0.92952526  0.94516273     0.01100
C1378       C  0.46776539  0.92708689  0.98010776    -0.24400
H1379       H  0.53523291  0.91296344  0.14151875     0.09100
H1380       H  0.52702255  0.91935429  0.06617845     0.12600
H1381       H  0.47993671  0.91355275  0.18134833     0.11400
H1382       H  0.45660625  0.91752086  0.12662758     0.12600
H1383       H  0.44696676  0.92245336  0.05056988     0.11600
H1384       H  0.51877637  0.92836959  0.00307128     0.08700
H1385       H  0.50797598  0.93216899  0.92851130     0.11900
H1386       H  0.45352083  0.92656599  0.97304988     0.13800
C1387       C  0.51907825  0.92228241  0.44666299    -0.01700
C1388       C  0.50078491  0.92034923  0.45596144    -0.09700
C1389       C  0.49488403  0.91729499  0.49935052    -0.18600
C1390       C  0.50717999  0.91637733  0.53504485     0.03800
C1391       C  0.52563423  0.91917208  0.52549864     0.18000
C1392       C  0.53139371  0.92176807  0.48165228    -0.20000
C1393       C  0.53828271  0.91929202  0.55973642    -0.21200
C1394       C  0.53299222  0.91701183  0.60353678    -0.19800
C1395       C  0.51499262  0.91398114  0.61408839     0.19400
C1396       C  0.50187645  0.91307223  0.57989250     0.01500
C1397       C  0.48409775  0.90876871  0.59215004    -0.14500
C1398       C  0.47945245  0.90626871  0.63658790    -0.12200
C1399       C  0.49225670  0.90819514  0.67031104     0.01100
C1400       C  0.51004175  0.91187875  0.65875183    -0.24400
H1401       H  0.49104974  0.92049223  0.42931965     0.09100
H1402       H  0.48063306  0.91578845  0.50394204     0.12600
H1403       H  0.54557378  0.92330333  0.47463458     0.11400
H1404       H  0.55236569  0.92143214  0.55264556     0.12600
H1405       H  0.54308687  0.91750533  0.62934885     0.11600
H1406       H  0.47352388  0.90710176  0.56812689     0.08700
H1407       H  0.46563806  0.90319406  0.64466444     0.11900
H1408       H  0.52009419  0.91297263  0.68458723     0.13800
C1409       C  0.48197902  0.15872816  0.19640496    -0.01700
C1410       C  0.47374204  0.17161845  0.22345688    -0.09700
C1411       C  0.45849790  0.18088835  0.20898510    -0.18600
C1412       C  0.45113485  0.17769645  0.16646733     0.03800
C1413       C  0.46014475  0.16526093  0.13839436     0.18000
C1414       C  0.47517133  0.15577488  0.15373064    -0.20000
C1415       C  0.45409605  0.16228252  0.09512821    -0.21200
C1416       C  0.43920707  0.17132965  0.07904497    -0.19800
C1417       C  0.42969649  0.18320139  0.10621105     0.19400
C1418       C  0.43527119  0.18640383  0.15056966     0.01500
C1419       C  0.42452238  0.19791313  0.17702145    -0.14500
C1420       C  0.40912692  0.20614331  0.15964402    -0.12200
C1421       C  0.40425757  0.20341637  0.11535996     0.01100
C1422       C  0.41455757  0.19185349  0.08906803    -0.24400
H1423       H  0.47886063  0.17426445  0.25643418     0.09100
H1424       H  0.45283073  0.19053253  0.23161992     0.12600
H1425       H  0.48165568  0.14607643  0.13221794     0.11400
H1426       H  0.46099370  0.15295122  0.07346225     0.12600
H1427       H  0.43494909  0.16882911  0.04523203     0.11600
H1428       H  0.42759106  0.20065478  0.21126948     0.08700
H1429       H  0.40130085  0.21502290  0.18047994     0.11900
H1430       H  0.41065179  0.18946301  0.05490544     0.13800
C1431       C  0.52366534  0.10825858  0.09138565    -0.01700
C1432       C  0.50592805  0.10414845  0.07993688    -0.09700
C1433       C  0.50011059  0.10546853  0.03605206    -0.18600
C1434       C  0.51195433  0.11088953  0.00195977     0.03800
C1435       C  0.53025028  0.11361778  0.01318691     0.18000
C1436       C  0.53586592  0.11253175  0.05759383    -0.20000
C1437       C  0.54275181  0.11779511  0.98014162    -0.21200
C1438       C  0.53742465  0.11958151  0.93615190    -0.19800
C1439       C  0.51934870  0.11798360  0.92437662     0.19400
C1440       C  0.50629613  0.11390191  0.95730027     0.01500
C1441       C  0.48807675  0.11381828  0.94447811    -0.14500
C1442       C  0.48307490  0.11769452  0.90094198    -0.12200
C1443       C  0.49599836  0.12126388  0.86843005     0.01100
C1444       C  0.51415281  0.12106626  0.88013629    -0.24400
H1445       H  0.49627084  0.10058335  0.10526608     0.09100
H1446       H  0.48625098  0.10222648  0.02984653     0.12600
H1447       H  0.54970366  0.11542899  0.06596284     0.11400
H1448       H  0.55675983  0.11972301  0.98838493     0.12600
H1449       H  0.54744467  0.12280236  0.91137216     0.11600
H1450       H  0.47733973  0.11146071  0.96767504     0.08700
H1451       H  0.46895316  0.11788722  0.89256281     0.11900
H1452       H  0.52417213  0.12414880  0.85521279     0.13800
C1453       C  0.50513492  0.12480286  0.36637847    -0.01700
C1454       C  0.48710291  0.12086581  0.37486071    -0.09700
C1455       C  0.48104351  0.11841192  0.41838556    -0.18600
C1456       C  0.49300859  0.11954479  0.45475730     0.03800
C1457       C  0.51136486  0.12306072  0.44554320     0.18000
C1458       C  0.51713494  0.12589240  0.40195119    -0.20000
C1459       C  0.52396689  0.12363580  0.47981856    -0.21200
C1460       C  0.51878108  0.12069907  0.52335091    -0.19800
C1461       C  0.50079449  0.11759490  0.53379548     0.19400
C1462       C  0.48754795  0.11724641  0.49985061     0.01500
C1463       C  0.46944152  0.11503882  0.51277743    -0.14500
C1464       C  0.46476140  0.11352490  0.55752865    -0.12200
C1465       C  0.47796633  0.11361876  0.59050641     0.01100
C1466       C  0.49595204  0.11535580  0.57833016    -0.24400
H1467       H  0.47760768  0.11988411  0.34780251     0.09100
H1468       H  0.46701099  0.11542041  0.42247169     0.12600
H1469       H  0.53118391  0.12865980  0.39562154     0.11400
H1470       H  0.53798401  0.12624972  0.47286564     0.12600
H1471       H  0.52888766  0.12114681  0.54915185     0.11600
H1472       H  0.45858038  0.11498990  0.48924225     0.08700
H1473       H  0.45074016  0.11242097  0.56644895     0.11900
H1474       H  0.50616831  0.11590653  0.60390170     0.13800
C1475       C  0.53862222  0.06503164  0.25454693    -0.01700
C1476       C  0.55506106  0.05590286  0.25383675    -0.09700
C1477       C  0.55583244  0.03731275  0.26188369    -0.18600
C1478       C  0.54001916  0.02720837  0.26959591     0.03800
C1479       C  0.52342188  0.03658805  0.26894545     0.18000
C1480       C  0.52294434  0.05522970  0.26262969    -0.20000
C1481       C  0.50724405  0.02730667  0.27366323    -0.21200
C1482       C  0.50708618  0.00879717  0.27849776    -0.19800
C1483       C  0.52312842  0.99914823  0.28041781     0.19400
C1484       C  0.53989277  0.00816207  0.27707385     0.01500
C1485       C  0.55563711  0.99769572  0.28202262    -0.14500
C1486       C  0.55465437  0.97908797  0.28967714    -0.12200
C1487       C  0.53803743  0.97032010  0.29127094     0.01100
C1488       C  0.52239218  0.98048700  0.28632422    -0.24400
H1489       H  0.56735591  0.06316797  0.24722616     0.09100
H1490       H  0.56887136  0.03111682  0.26077702     0.12600
H1491       H  0.51011580  0.06207814  0.26233217     0.11400
H1492       H  0.49456283  0.03439380  0.27285643     0.12600
H1493       H  0.49428711  0.00199226  0.28136916     0.11600
H1494       H  0.56882319  0.00360608  0.28101943     0.08700
H1495       H  0.56692034  0.97149458  0.29375207     0.11900
H1496       H  0.50946139  0.97386284  0.28839577     0.13800
C1497       C  0.93565437  0.67101875  0.16146259    -0.01700
C1498       C  0.91688893  0.67100131  0.16026039    -0.09700
C1499       C  0.90745056  0.68604047  0.14569181    -0.18600
C1500       C  0.91652088  0.70169150  0.13143508     0.03800
C1501       C  0.93556649  0.70133113  0.13052572     0.18000
C1502       C  0.94492068  0.68618039  0.14600825    -0.20000
C1503       C  0.94514677  0.71615665  0.11453747    -0.21200
C1504       C  0.93620670  0.73137695  0.09945910    -0.19800
C1505       C  0.91748324  0.73237839  0.10126968     0.19400
C1506       C  0.90738778  0.71764949  0.11801644     0.01500
C1507       C  0.88861387  0.71968750  0.12154017    -0.14500
C1508       C  0.88021747  0.73552612  0.10839936    -0.12200
C1509       C  0.89011358  0.74981749  0.09070441     0.01100
C1510       C  0.90877782  0.74812743  0.08704620    -0.24400
H1511       H  0.90938583  0.65947412  0.17194886     0.09100
H1512       H  0.89304687  0.68495416  0.14591805     0.12600
H1513       H  0.95945227  0.68626499  0.14642601     0.11400
H1514       H  0.95966172  0.71594708  0.11348316     0.12600
H1515       H  0.94401623  0.74257052  0.08698678     0.11600
H1516       H  0.88003411  0.70941601  0.13513353     0.08700
H1517       H  0.86579822  0.73651154  0.11177923     0.11900
H1518       H  0.91657902  0.75922964  0.07400667     0.13800
C1519       C  0.91742097  0.63536691  0.31150849    -0.01700
C1520       C  0.91693563  0.62881699  0.35490899    -0.09700
C1521       C  0.90501907  0.63618663  0.38594026    -0.18600
C1522       C  0.89351034  0.65058625  0.37425537     0.03800
C1523       C  0.89322161  0.65607597  0.32909051     0.18000
C1524       C  0.90503006  0.64838511  0.29837111    -0.20000
C1525       C  0.88213037  0.67015119  0.31537767    -0.21200
C1526       C  0.87244895  0.68000936  0.34618918    -0.19800
C1527       C  0.87361247  0.67597260  0.39136534     0.19400
C1528       C  0.88340266  0.66068862  0.40600216     0.01500
C1529       C  0.88367316  0.65707662  0.45209057    -0.14500
C1530       C  0.87634519  0.66926734  0.48245963    -0.12200
C1531       C  0.86846864  0.68525464  0.46775029     0.01100
C1532       C  0.86619955  0.68796668  0.42216945    -0.24400
H1533       H  0.92656844  0.61883505  0.36558349     0.09100
H1534       H  0.90580257  0.63102501  0.41924458     0.12600
H1535       H  0.90553153  0.65349959  0.26469376     0.11400
H1536       H  0.88166545  0.67417080  0.28085691     0.12600
H1537       H  0.86472505  0.69143834  0.33481891     0.11600
H1538       H  0.89024610  0.64544466  0.46574820     0.08700
H1539       H  0.87810064  0.66683085  0.51759937     0.11900
H1540       H  0.85982813  0.70019382  0.41063173     0.13800
C1541       C  0.96068525  0.56359499  0.25338582    -0.01700
C1542       C  0.97267441  0.55659449  0.28472051    -0.09700
C1543       C  0.97252424  0.53851845  0.29558792    -0.18600
C1544       C  0.96035748  0.52648295  0.27570553     0.03800
C1545       C  0.94800608  0.53351559  0.24423002     0.18000
C1546       C  0.94818494  0.55197557  0.23358547    -0.20000
C1547       C  0.93590257  0.52196273  0.22299688    -0.21200
C1548       C  0.93610882  0.50355523  0.23151629    -0.19800
C1549       C  0.94829987  0.49623571  0.26184319     0.19400
C1550       C  0.96035322  0.50770808  0.28501393     0.01500
C1551       C  0.97210744  0.49979548  0.31598198    -0.14500
C1552       C  0.97273524  0.48134103  0.32181451    -0.12200
C1553       C  0.96146498  0.46996490  0.29753783     0.01100
C1554       C  0.94887637  0.47750429  0.26848870    -0.24400
H1555       H  0.98253049  0.56514121  0.30055377     0.09100
H1556       H  0.98263110  0.53429141  0.31965906     0.12600
H1557       H  0.93890409  0.55719280  0.20903168     0.11400
H1558       H  0.92640605  0.52716393  0.19902567     0.12600
H1559       H  0.92679501  0.49495186  0.21389045     0.11600
H1560       H  0.98137992  0.50759268  0.33635932     0.08700
H1561       H  0.98230614  0.47585911  0.34515418     0.11900
H1562       H  0.94003485  0.46874824  0.24969936     0.13800
C1563       C  0.02115551  0.37275686  0.30296974    -0.01700
C1564       C  0.01827221  0.35656638  0.32551522    -0.09700
C1565       C  0.03273747  0.34642735  0.34125035    -0.18600
C1566       C  0.05065846  0.35215741  0.33459999     0.03800
C1567       C  0.05346402  0.36798736  0.30920292     0.18000
C1568       C  0.03881127  0.37812384  0.29402770    -0.20000
C1569       C  0.07088987  0.37390214  0.30005885    -0.21200
C1570       C  0.08566366  0.36480522  0.31693599    -0.19800
C1571       C  0.08340679  0.34971726  0.34402922     0.19400
C1572       C  0.06586341  0.34308168  0.35303742     0.01500
C1573       C  0.06430711  0.32811541  0.38159751    -0.14500
C1574       C  0.07939956  0.32059624  0.40171495    -0.12200
C1575       C  0.09661206  0.32737366  0.39344028     0.01100
C1576       C  0.09856989  0.34163454  0.36352336    -0.24400
H1577       H  0.00475942  0.35203387  0.33242605     0.09100
H1578       H  0.02945136  0.33428982  0.35892796     0.12600
H1579       H  0.04117760  0.39044971  0.27576876     0.11400
H1580       H  0.07311399  0.38583905  0.28023925     0.12600
H1581       H  0.09895399  0.36992458  0.30976568     0.11600
H1582       H  0.05156260  0.32226804  0.39022538     0.08700
H1583       H  0.07756121  0.30948640  0.42446978     0.11900
H1584       H  0.11182118  0.34705256  0.35721486     0.13800
C1585       C  0.98542060  0.66172535  0.70900706    -0.01700
C1586       C  0.98804103  0.67593762  0.67933564    -0.09700
C1587       C  0.97344011  0.68546396  0.66231481    -0.18600
C1588       C  0.95566347  0.68116337  0.67494357     0.03800
C1589       C  0.95322018  0.66744276  0.70715501     0.18000
C1590       C  0.96799400  0.65776200  0.72334701    -0.20000
C1591       C  0.93601429  0.66325352  0.72250430    -0.21200
C1592       C  0.92106618  0.67210053  0.70577761    -0.19800
C1593       C  0.92289354  0.68508653  0.67254835     0.19400
C1594       C  0.94022651  0.68977796  0.65651235     0.01500
C1595       C  0.94127797  0.70244380  0.62172428    -0.14500
C1596       C  0.92581619  0.70987255  0.60326604    -0.12200
C1597       C  0.90876887  0.70525705  0.61920538     0.01100
C1598       C  0.90743044  0.69306098  0.65441612    -0.24400
H1599       H  0.00141396  0.67934104  0.66814335     0.09100
H1600       H  0.97650753  0.69609411  0.63923796     0.12600
H1601       H  0.96591179  0.64700713  0.74705496     0.11400
H1602       H  0.93408540  0.65295748  0.74745615     0.12600
H1603       H  0.90792981  0.66844832  0.71819912     0.11600
H1604       H  0.95383720  0.70654106  0.60719426     0.08700
H1605       H  0.92722269  0.71928133  0.57609726     0.11900
H1606       H  0.89429383  0.68923995  0.66658934     0.13800
C1607       C  0.99576073  0.62321495  0.36045390    -0.01700
C1608       C  0.01279389  0.61618587  0.36962172    -0.09700
C1609       C  0.01865250  0.61412128  0.41355164    -0.18600
C1610       C  0.00746515  0.61883791  0.44968995     0.03800
C1611       C  0.99002933  0.62542049  0.43981932     0.18000
C1612       C  0.98451661  0.62772830  0.39589021    -0.20000
C1613       C  0.97802051  0.62961683  0.47380691    -0.21200
C1614       C  0.98290961  0.62745631  0.51773644    -0.19800
C1615       C  0.00008312  0.62147246  0.52879766     0.19400
C1616       C  0.01274935  0.61722105  0.49519399     0.01500
C1617       C  0.03011646  0.61186549  0.50886172    -0.14500
C1618       C  0.03460575  0.61082288  0.55401316    -0.12200
C1619       C  0.02190512  0.61489238  0.58680352     0.01100
C1620       C  0.00465345  0.62005302  0.57361026    -0.24400
H1621       H  0.02167400  0.61241494  0.34279550     0.09100
H1622       H  0.03188690  0.60864508  0.41827555     0.12600
H1623       H  0.97118711  0.63289109  0.38933055     0.11400
H1624       H  0.96468077  0.63452348  0.46635882     0.12600
H1625       H  0.97324395  0.63074792  0.54331178     0.11600
H1626       H  0.04056738  0.60874655  0.48541362     0.08700
H1627       H  0.04809452  0.60698273  0.56323187     0.11900
H1628       H  0.99468335  0.62339613  0.59844067     0.13800
C1629       C  0.97650136  0.60746118  0.08603114    -0.01700
C1630       C  0.98933298  0.59530949  0.07020387    -0.09700
C1631       C  0.99523719  0.59610576  0.02609845    -0.18600
C1632       C  0.98872581  0.60942908  0.99669946     0.03800
C1633       C  0.97595877  0.62187528  0.01342903     0.18000
C1634       C  0.96976478  0.62054343  0.05713327    -0.20000
C1635       C  0.96970271  0.63592026  0.98686300    -0.21200
C1636       C  0.97599742  0.63806606  0.94395409    -0.19800
C1637       C  0.98831370  0.62591825  0.92610437     0.19400
C1638       C  0.99462197  0.61117584  0.95170991     0.01500
C1639       C  0.00644016  0.59888010  0.93094103    -0.14500
C1640       C  0.01196284  0.60139406  0.88693305    -0.12200
C1641       C  0.00619391  0.61637241  0.86282650     0.01100
C1642       C  0.99435551  0.62851350  0.88260790    -0.24400
H1643       H  0.99493916  0.58524411  0.09208432     0.09100
H1644       H  0.00523550  0.58645401  0.01628534     0.12600
H1645       H  0.96014337  0.63029790  0.06924535     0.11400
H1646       H  0.96007152  0.64551340  0.99962458     0.12600
H1647       H  0.97109549  0.64925960  0.92446098     0.11600
H1648       H  0.01150595  0.58717025  0.94774566     0.08700
H1649       H  0.02116757  0.59188012  0.87211201     0.11900
H1650       H  0.98970278  0.64002162  0.86379658     0.13800
C1651       C  0.02955388  0.42973560  0.93906468    -0.01700
C1652       C  0.04091121  0.42122381  0.96951222    -0.09700
C1653       C  0.03732799  0.42164797  0.01467806    -0.18600
C1654       C  0.02205041  0.43054340  0.03130031     0.03800
C1655       C  0.01127014  0.44035359  0.00090099     0.18000
C1656       C  0.01504285  0.43981603  0.95511224    -0.20000
C1657       C  0.99645567  0.45006537  0.01632035    -0.21200
C1658       C  0.99153397  0.44939383  0.06087457    -0.19800
C1659       C  0.00110225  0.43871445  0.09089310     0.19400
C1660       C  0.01671167  0.42939064  0.07662593     0.01500
C1661       C  0.02567429  0.41836313  0.10768863    -0.14500
C1662       C  0.01875563  0.41573332  0.14999392    -0.12200
C1663       C  0.00310311  0.42440778  0.16332518     0.01100
C1664       C  0.99464035  0.43643794  0.13443659    -0.24400
H1665       H  0.05244302  0.41363118  0.95837139     0.09100
H1666       H  0.04667613  0.41458675  0.03554971     0.12600
H1667       H  0.00635579  0.44674784  0.93195935     0.11400
H1668       H  0.98835355  0.45786582  0.99358087     0.12600
H1669       H  0.97972831  0.45668250  0.07153155     0.11600
H1670       H  0.03758293  0.41084677  0.09982290     0.08700
H1671       H  0.02542124  0.40643642  0.17218538     0.11900
H1672       H  0.98238044  0.44302435  0.14483091     0.13800
C1673       C  0.00813867  0.41153722  0.66309388    -0.01700
C1674       C  0.99028212  0.41572222  0.65317509    -0.09700
C1675       C  0.98479081  0.41796656  0.60903202    -0.18600
C1676       C  0.99717598  0.41630980  0.57360502     0.03800
C1677       C  0.01532201  0.41249224  0.58443854     0.18000
C1678       C  0.02050134  0.40997958  0.62847478    -0.20000
C1679       C  0.02833833  0.41114114  0.55132359    -0.21200
C1680       C  0.02372366  0.41315306  0.50719920    -0.19800
C1681       C  0.00593364  0.41627684  0.49508620     0.19400
C1682       C  0.99234862  0.41807928  0.52788534     0.01500
C1683       C  0.97459190  0.42118607  0.51320835    -0.14500
C1684       C  0.97051406  0.42178644  0.46786304    -0.12200
C1685       C  0.98397896  0.41941401  0.43593370     0.01100
C1686       C  0.00168280  0.41711219  0.45001113    -0.24400
H1687       H  0.98049714  0.41698929  0.67951532     0.09100
H1688       H  0.97084513  0.42099520  0.60364955     0.12600
H1689       H  0.03441072  0.40696262  0.63587419     0.11400
H1690       H  0.04220971  0.40839443  0.55959965     0.12600
H1691       H  0.03411491  0.41188969  0.48226483     0.11600
H1692       H  0.96356727  0.42283265  0.53590508     0.08700
H1693       H  0.95672192  0.42375793  0.45781810     0.11900
H1694       H  0.01227154  0.41553273  0.42567828     0.13800
C1695       C  0.04345300  0.47062242  0.77169747    -0.01700
C1696       C  0.03402198  0.47756976  0.73547719    -0.09700
C1697       C  0.03503606  0.49572068  0.72451245    -0.18600
C1698       C  0.04541199  0.50784068  0.74994979     0.03800
C1699       C  0.05553272  0.50075004  0.78582215     0.18000
C1700       C  0.05455882  0.48225393  0.79624629    -0.20000
C1701       C  0.06620607  0.51225785  0.81153547    -0.21200
C1702       C  0.06668292  0.53069599  0.80305419    -0.19800
C1703       C  0.05637418  0.53817540  0.76887895     0.19400
C1704       C  0.04571547  0.52677064  0.74162933     0.01500
C1705       C  0.03530280  0.53486595  0.70803325    -0.14500
C1706       C  0.03487009  0.55342930  0.70290805    -0.12200
C1707       C  0.04498418  0.56473918  0.73025886     0.01100
C1708       C  0.05614658  0.55702015  0.76256617    -0.24400
H1709       H  0.02558980  0.46890700  0.71548405     0.09100
H1710       H  0.02731942  0.49980496  0.69616031     0.12600
H1711       H  0.06197554  0.47705173  0.82432729     0.11400
H1712       H  0.07406131  0.50699703  0.83879754     0.12600
H1713       H  0.07488755  0.53921038  0.82397813     0.11600
H1714       H  0.02692830  0.52732767  0.68576647     0.08700
H1715       H  0.02628851  0.55903046  0.67742665     0.11900
H1716       H  0.06395419  0.56568203  0.78406883     0.13800
C1717       C  0.06475582  0.36355051  0.86889242    -0.01700
C1718       C  0.05498670  0.34801067  0.87898189    -0.09700
C1719       C  0.06335748  0.33314885  0.89797814    -0.18600
C1720       C  0.08193493  0.33330247  0.90711599     0.03800
C1721       C  0.09157076  0.34947363  0.89904530     0.18000
C1722       C  0.08294611  0.36436531  0.88025168    -0.20000
C1723       C  0.10988249  0.35054123  0.90855462    -0.21200
C1724       C  0.11899761  0.33569937  0.92478412    -0.19800
C1725       C  0.11005682  0.31939097  0.93137855     0.19400
C1726       C  0.09138115  0.31792271  0.92296530     0.01500
C1727       C  0.08314833  0.30097636  0.92946460    -0.14500
C1728       C  0.09313711  0.28610055  0.94306854    -0.12200
C1729       C  0.11155328  0.28765566  0.95096713     0.01100
C1730       C  0.11984350  0.30441777  0.94548006    -0.24400
H1731       H  0.04083860  0.34714499  0.87121108     0.09100
H1732       H  0.05496428  0.32166688  0.90443288     0.12600
H1733       H  0.09061479  0.37638022  0.87292611     0.11400
H1734       H  0.11726548  0.36286653  0.90279794     0.12600
H1735       H  0.13323137  0.33688189  0.93133840     0.11600
H1736       H  0.06909943  0.29867595  0.92357044     0.08700
H1737       H  0.08641922  0.27330121  0.94709408     0.11900
H1738       H  0.13411102  0.30580309  0.95141145     0.13800
C1739       C  0.08666169  0.39745002  0.71647871    -0.01700
C1740       C  0.09855547  0.38449563  0.73246442    -0.09700
C1741       C  0.11072641  0.37617773  0.70417110    -0.18600
C1742       C  0.11086026  0.38019857  0.65840279     0.03800
C1743       C  0.10022142  0.39485725  0.64343652     0.18000
C1744       C  0.08823390  0.40342904  0.67268135    -0.20000
C1745       C  0.10056480  0.39984663  0.59870245    -0.21200
C1746       C  0.10992857  0.38958370  0.56784805    -0.19800
C1747       C  0.11878424  0.37387544  0.58090450     0.19400
C1748       C  0.11989857  0.36927625  0.62658887     0.01500
C1749       C  0.12848234  0.35298866  0.63802181    -0.14500
C1750       C  0.13400174  0.34097164  0.60536823    -0.12200
C1751       C  0.13180580  0.34505983  0.56045292     0.01100
C1752       C  0.12519407  0.36196996  0.54836285    -0.24400
H1753       H  0.09764559  0.37997756  0.76656379     0.09100
H1754       H  0.11916648  0.36603668  0.71870821     0.12600
H1755       H  0.07902195  0.41352846  0.66040073     0.11400
H1756       H  0.09284349  0.41124554  0.58716400     0.12600
H1757       H  0.10925683  0.39332077  0.53315764     0.11600
H1758       H  0.13009381  0.34857417  0.67178793     0.08700
H1759       H  0.13936200  0.32806417  0.61532005     0.11900
H1760       H  0.12346867  0.36516386  0.51354376     0.13800
C1761       C  0.13778334  0.84821132  0.46093095    -0.01700
C1762       C  0.13020352  0.86400462  0.47767841    -0.09700
C1763       C  0.12281449  0.87677099  0.44911730    -0.18600
C1764       C  0.12276097  0.87402996  0.40269855     0.03800
C1765       C  0.13251780  0.85914210  0.38574637     0.18000
C1766       C  0.13980623  0.84633366  0.41488835    -0.20000
C1767       C  0.13383899  0.85647620  0.33989991    -0.21200
C1768       C  0.12443746  0.86742636  0.31063018    -0.19800
C1769       C  0.11309398  0.88094035  0.32663554     0.19400
C1770       C  0.11240475  0.88473342  0.37284230     0.01500
C1771       C  0.10009964  0.89791496  0.38754706    -0.14500
C1772       C  0.08786297  0.90568454  0.35824663    -0.12200
C1773       C  0.08802157  0.90123024  0.31323002     0.01100
C1774       C  0.10132636  0.88962492  0.29718050    -0.24400
H1775       H  0.12871723  0.86588373  0.51311963     0.09100
H1776       H  0.11664504  0.88828155  0.46441571     0.12600
H1777       H  0.14601846  0.83430085  0.40168918     0.11400
H1778       H  0.14160457  0.84540454  0.32667300     0.12600
H1779       H  0.12516691  0.86456615  0.27544185     0.11600
H1780       H  0.09872704  0.90157410  0.42190556     0.08700
H1781       H  0.07767307  0.91462823  0.37119567     0.11900
H1782       H  0.10131895  0.88593309  0.26239353     0.13800
C1783       C  0.02342669  0.88052436  0.68875635    -0.01700
C1784       C  0.02890581  0.88337781  0.64502761    -0.09700
C1785       C  0.04372976  0.87447827  0.62787437    -0.18600
C1786       C  0.05374544  0.86241877  0.65422284     0.03800
C1787       C  0.04874554  0.86026121  0.69937348     0.18000
C1788       C  0.03345816  0.86904382  0.71603129    -0.20000
C1789       C  0.05905778  0.84939320  0.72741829    -0.21200
C1790       C  0.07410183  0.84041416  0.71132438    -0.19800
C1791       C  0.07885974  0.84163079  0.66649354     0.19400
C1792       C  0.06854947  0.85248565  0.63724955     0.01500
C1793       C  0.07316244  0.85257523  0.59187203    -0.14500
C1794       C  0.08746059  0.84248420  0.57623751    -0.12200
C1795       C  0.09787217  0.83211666  0.60506666     0.01100
C1796       C  0.09365005  0.83183378  0.65036427    -0.24400
H1797       H  0.02151422  0.89241611  0.62361444     0.09100
H1798       H  0.04710392  0.87755837  0.59402591     0.12600
H1799       H  0.02952889  0.86717896  0.75032955     0.11400
H1800       H  0.05549937  0.84787431  0.76204586     0.12600
H1801       H  0.08183979  0.83216426  0.73387874     0.11600
H1802       H  0.06576080  0.85994562  0.56726734     0.08700
H1803       H  0.09049745  0.84296089  0.54111393     0.11900
H1804       H  0.10156134  0.82365589  0.67273669     0.13800
C1805       C  0.06542945  0.67383867  0.66733167    -0.01700
C1806       C  0.06144813  0.69114809  0.68277803    -0.09700
C1807       C  0.06853253  0.70636172  0.66206449    -0.18600
C1808       C  0.08021186  0.70479862  0.62536226     0.03800
C1809       C  0.08438184  0.68720506  0.61002954     0.18000
C1810       C  0.07673307  0.67199617  0.63045217    -0.20000
C1811       C  0.09653351  0.68487964  0.57513841    -0.21200
C1812       C  0.10515709  0.69958527  0.55623416    -0.19800
C1813       C  0.10147285  0.71705194  0.57083205     0.19400
C1814       C  0.08843097  0.71998572  0.60441589     0.01500
C1815       C  0.08441289  0.73798779  0.61587713    -0.14500
C1816       C  0.09378849  0.75234827  0.59687311    -0.12200
C1817       C  0.10758200  0.74927057  0.56630885     0.01100
C1818       C  0.11105849  0.73159273  0.55270821    -0.24400
H1819       H  0.05274399  0.69297442  0.71116629     0.09100
H1820       H  0.06499403  0.71915820  0.67632855     0.12600
H1821       H  0.08005715  0.65867180  0.61849607     0.11400
H1822       H  0.09977594  0.67154162  0.56319030     0.12600
H1823       H  0.11489130  0.69726340  0.53018710     0.11600
H1824       H  0.07416227  0.74139549  0.63962533     0.08700
H1825       H  0.09072460  0.76589876  0.60753120     0.11900
H1826       H  0.12146111  0.72912516  0.52833936     0.13800
C1827       C  0.41660966  0.89910903  0.72781665    -0.01700
C1828       C  0.41650035  0.90524748  0.68404537    -0.09700
C1829       C  0.40517208  0.89726261  0.65260287    -0.18600
C1830       C  0.39390144  0.88265663  0.66429508     0.03800
C1831       C  0.39323207  0.87755615  0.70972114     0.18000
C1832       C  0.40438133  0.88591328  0.74084555    -0.20000
C1833       C  0.38247053  0.86321717  0.72344155    -0.21200
C1834       C  0.37331767  0.85289325  0.69259123    -0.19800
C1835       C  0.37461512  0.85675266  0.64735643     0.19400
C1836       C  0.38429088  0.87209626  0.63249535     0.01500
C1837       C  0.38476793  0.87545324  0.58629600    -0.14500
C1838       C  0.37731920  0.86322207  0.55616596    -0.12200
C1839       C  0.36916840  0.84739391  0.57118642     0.01100
C1840       C  0.36718582  0.84467220  0.61680004    -0.24400
H1841       H  0.42609096  0.91530116  0.67343785     0.09100
H1842       H  0.40626501  0.90210955  0.61904788     0.12600
H1843       H  0.40463983  0.88109574  0.77481152     0.11400
H1844       H  0.38179862  0.85942760  0.75810326     0.12600
H1845       H  0.36575087  0.84136055  0.70407487     0.11600
H1846       H  0.39141519  0.88701421  0.57241145     0.08700
H1847       H  0.37899578  0.86558296  0.52097286     0.11900
H1848       H  0.36071851  0.83251423  0.62856268     0.13800
C1849       C  0.40506768  0.83066001  0.41878564    -0.01700
C1850       C  0.40726733  0.83118712  0.37272768    -0.09700
C1851       C  0.42214202  0.83981344  0.35398112    -0.18600
C1852       C  0.43507813  0.84844816  0.38100889     0.03800
C1853       C  0.43221697  0.84847234  0.42760733     0.18000
C1854       C  0.41756906  0.83940202  0.44586977    -0.20000
C1855       C  0.44390293  0.85765037  0.45591397    -0.21200
C1856       C  0.45847464  0.86691487  0.43895188    -0.19800
C1857       C  0.46201585  0.86671720  0.39345301     0.19400
C1858       C  0.45061830  0.85723525  0.36374216     0.01500
C1859       C  0.45547288  0.85680658  0.31833147    -0.14500
C1860       C  0.47080327  0.86576205  0.30313762    -0.12200
C1861       C  0.48144193  0.87562294  0.33256377     0.01100
C1862       C  0.47699780  0.87597527  0.37758689    -0.24400
H1863       H  0.39761065  0.82469267  0.35121444     0.09100
H1864       H  0.42304362  0.83972474  0.31830080     0.12600
H1865       H  0.41571455  0.83943189  0.48155231     0.11400
H1866       H  0.44165198  0.85781861  0.49142066     0.12600
H1867       H  0.46717334  0.87409759  0.46165866     0.11600
H1868       H  0.44778434  0.84953698  0.29393813     0.08700
H1869       H  0.47406028  0.86541032  0.26814976     0.11900
H1870       H  0.48536528  0.88345890  0.40052978     0.13800
C1871       C  0.29835428  0.80852660  0.49766673    -0.01700
C1872       C  0.29104555  0.79394316  0.52066070    -0.09700
C1873       C  0.27328385  0.79393968  0.53448285    -0.18600
C1874       C  0.26184172  0.80854331  0.52516654     0.03800
C1875       C  0.26907358  0.82334508  0.50123186     0.18000
C1876       C  0.28738470  0.82343132  0.48854885    -0.20000
C1877       C  0.25778932  0.83758113  0.48904652    -0.21200
C1878       C  0.23946348  0.83710589  0.49885469    -0.19800
C1879       C  0.23199731  0.82263702  0.52229678     0.19400
C1880       C  0.24329670  0.80851153  0.53715924     0.01500
C1881       C  0.23551760  0.79474618  0.56300415    -0.14500
C1882       C  0.21713086  0.79412235  0.57045102    -0.12200
C1883       C  0.20568812  0.80726436  0.55315029     0.01100
C1884       C  0.21329546  0.82190716  0.53028027    -0.24400
H1885       H  0.29919270  0.78225763  0.52791010     0.09100
H1886       H  0.26879906  0.78194593  0.55108530     0.12600
H1887       H  0.29284361  0.83464511  0.47003719     0.11400
H1888       H  0.26306894  0.84892642  0.47072604     0.12600
H1889       H  0.23105651  0.84807893  0.48777463     0.11600
H1890       H  0.24326342  0.78415946  0.57797041     0.08700
H1891       H  0.21180569  0.78301974  0.58958569     0.11900
H1892       H  0.20465210  0.83237816  0.51745554     0.13800
C1893       C  0.11166388  0.78589526  0.08817884    -0.01700
C1894       C  0.09865476  0.79393948  0.06117461    -0.09700
C1895       C  0.08947491  0.80933138  0.07535257    -0.18600
C1896       C  0.09286955  0.81697323  0.11752706     0.03800
C1897       C  0.10560445  0.80825132  0.14527214     0.18000
C1898       C  0.11496822  0.79312073  0.13021894    -0.20000
C1899       C  0.10899533  0.81464480  0.18803365    -0.21200
C1900       C  0.10003007  0.82958114  0.20407528    -0.19800
C1901       C  0.08777627  0.83875846  0.17737140     0.19400
C1902       C  0.08412750  0.83284085  0.13345512     0.01500
C1903       C  0.07216384  0.84327277  0.10751798    -0.14500
C1904       C  0.06417540  0.85884492  0.12478960    -0.12200
C1905       C  0.06755062  0.86413421  0.16853767     0.01100
C1906       C  0.07929363  0.85398886  0.19450072    -0.24400
H1907       H  0.09583578  0.78853472  0.02856131     0.09100
H1908       H  0.07973681  0.81488238  0.05281625     0.12600
H1909       H  0.12481770  0.78681599  0.15160380     0.11400
H1910       H  0.11859190  0.80797136  0.20937770     0.12600
H1911       H  0.10289017  0.83413765  0.23749175     0.11600
H1912       H  0.06894816  0.83986360  0.07370058     0.08700
H1913       H  0.05510712  0.86656574  0.10425525     0.11900
H1914       H  0.08213829  0.85821498  0.22822481     0.13800
C1915       C  0.08267901  0.63341851  0.82544978    -0.01700
C1916       C  0.09979818  0.63910937  0.81266495    -0.09700
C1917       C  0.11185377  0.64578205  0.84418743    -0.18600
C1918       C  0.10692856  0.64712384  0.88940628     0.03800
C1919       C  0.09025248  0.63950732  0.90248047     0.18000
C1920       C  0.07847586  0.63256930  0.87064568    -0.20000
C1921       C  0.08473309  0.64015727  0.94675211    -0.21200
C1922       C  0.09463591  0.64966637  0.97777818    -0.19800
C1923       C  0.11025296  0.65870770  0.96512718     0.19400
C1924       C  0.11714201  0.65695164  0.92137862     0.01500
C1925       C  0.13310936  0.66638455  0.91081623    -0.14500
C1926       C  0.14065273  0.67859922  0.94085968    -0.12200
C1927       C  0.13265618  0.68138959  0.98213483     0.01100
C1928       C  0.11815143  0.67070174  0.99499323    -0.24400
H1929       H  0.10340415  0.63966940  0.77790456     0.09100
H1930       H  0.12449943  0.65067724  0.83184716     0.12600
H1931       H  0.06535275  0.62781361  0.88080089     0.11400
H1932       H  0.07217101  0.63411042  0.95696025     0.12600
H1933       H  0.08952058  0.65077345  0.01130204     0.11600
H1934       H  0.13944209  0.66540655  0.87881028     0.08700
H1935       H  0.15189019  0.68682543  0.93055588     0.11900
H1936       H  0.11204516  0.67289380  0.02721307     0.13800
C1937       C  0.09842140  0.70262818  0.12779699    -0.01700
C1938       C  0.09971578  0.68405969  0.13496010    -0.09700
C1939       C  0.08484562  0.67408939  0.14866603    -0.18600
C1940       C  0.06807008  0.68241837  0.15585899     0.03800
C1941       C  0.06709051  0.70139313  0.15113051     0.18000
C1942       C  0.08211054  0.71123680  0.13683468    -0.20000
C1943       C  0.05103915  0.71041661  0.16002659    -0.21200
C1944       C  0.03589495  0.70100681  0.17356700    -0.19800
C1945       C  0.03624823  0.68227708  0.17718091     0.19400
C1946       C  0.05224454  0.67265072  0.16751498     0.01500
C1947       C  0.05155417  0.65367037  0.16892665    -0.14500
C1948       C  0.03576304  0.64471006  0.18030125    -0.12200
C1949       C  0.02028545  0.65430683  0.19154488     0.01100
C1950       C  0.02061510  0.67309050  0.18997700    -0.24400
H1951       H  0.11214385  0.67703328  0.12844293     0.09100
H1952       H  0.08689562  0.65988314  0.15321492     0.12600
H1953       H  0.08096242  0.72561005  0.13178639     0.11400
H1954       H  0.05020899  0.72488522  0.15667059     0.12600
H1955       H  0.02371878  0.70841869  0.18054181     0.11600
H1956       H  0.06290505  0.64536385  0.16072184     0.08700
H1957       H  0.03576803  0.63016309  0.18121988     0.11900
H1958       H  0.00856539  0.68055732  0.19799681     0.13800
C1959       C  0.15423758  0.78203777  0.69248670    -0.01700
C1960       C  0.14880492  0.76456512  0.70342584    -0.09700
C1961       C  0.14738331  0.75913918  0.74729568    -0.18600
C1962       C  0.15131048  0.77107099  0.78233633     0.03800
C1963       C  0.15712084  0.78872620  0.77139286     0.18000
C1964       C  0.15865543  0.79401606  0.72670602    -0.20000
C1965       C  0.16094472  0.80107242  0.80513698    -0.21200
C1966       C  0.15867586  0.79640101  0.84949274    -0.19800
C1967       C  0.15273675  0.77919654  0.86121155     0.19400
C1968       C  0.14925224  0.76619733  0.82775403     0.01500
C1969       C  0.14364887  0.74889828  0.84115925    -0.14500
C1970       C  0.14103624  0.74486772  0.88563848    -0.12200
C1971       C  0.14406937  0.75777851  0.91850964     0.01100
C1972       C  0.15014774  0.77489344  0.90618038    -0.24400
H1973       H  0.14529080  0.75496383  0.67785538     0.09100
H1974       H  0.14281975  0.74557934  0.75241859     0.12600
H1975       H  0.16290071  0.80755702  0.71864593     0.11400
H1976       H  0.16544145  0.81453440  0.79715275     0.12600
H1977       H  0.16147605  0.80635290  0.87479372     0.11600
H1978       H  0.14115940  0.73809404  0.81825259     0.08700
H1979       H  0.13673451  0.73141510  0.89431600     0.11900
H1980       H  0.15267760  0.78492091  0.93149959     0.13800
C1981       C  0.15695885  0.77300517  0.41594005    -0.01700
C1982       C  0.16574984  0.75689070  0.40702095    -0.09700
C1983       C  0.16882105  0.75163330  0.36334561    -0.18600
C1984       C  0.16331318  0.76260053  0.32755336     0.03800
C1985       C  0.15581114  0.77969675  0.33733095     0.18000
C1986       C  0.15233338  0.78454787  0.38130010    -0.20000
C1987       C  0.15150666  0.79165043  0.30318789    -0.21200
C1988       C  0.15398634  0.78673455  0.25920661    -0.19800
C1989       C  0.16005559  0.76948959  0.24851286     0.19400
C1990       C  0.16464139  0.75709215  0.28252213     0.01500
C1991       C  0.16930887  0.73938035  0.27009206    -0.14500
C1992       C  0.16894001  0.73411052  0.22579135    -0.12200
C1993       C  0.16461116  0.74646316  0.19269529     0.01100
C1994       C  0.16066708  0.76423355  0.20399617    -0.24400
H1995       H  0.16966256  0.74805953  0.43386939     0.09100
H1996       H  0.17554944  0.73896470  0.35863225     0.12600
H1997       H  0.14590938  0.79727333  0.38869984     0.11400
H1998       H  0.14608259  0.80482517  0.31054311     0.12600
H1999       H  0.15044100  0.79620473  0.23338699     0.11600
H2000       H  0.17237699  0.72905321  0.29394207     0.08700
H2001       H  0.17177573  0.72025087  0.21735420     0.11900
H2002       H  0.15684983  0.77364960  0.17822925     0.13800
C2003       C  0.38839617  0.78806592  0.94815061    -0.01700
C2004       C  0.37862144  0.80298704  0.93386590    -0.09700
C2005       C  0.38733474  0.81870409  0.92109823    -0.18600
C2006       C  0.40625448  0.81987649  0.92156555     0.03800
C2007       C  0.41610791  0.80449728  0.93526268     0.18000
C2008       C  0.40712551  0.78888514  0.94892283    -0.20000
C2009       C  0.43485437  0.80475946  0.93505995    -0.21200
C2010       C  0.44409255  0.82000806  0.92151114    -0.19800
C2011       C  0.43480394  0.83542089  0.90831052     0.19400
C2012       C  0.41574508  0.83565523  0.90853000     0.01500
C2013       C  0.40703762  0.85165830  0.89548154    -0.14500
C2014       C  0.41682441  0.86657371  0.88164776    -0.12200
C2015       C  0.43557354  0.86607155  0.88011749     0.01100
C2016       C  0.44448859  0.85052579  0.89409935    -0.24400
H2017       H  0.36410723  0.80259586  0.93322891     0.09100
H2018       H  0.37884238  0.82962547  0.91076268     0.12600
H2019       H  0.41472011  0.77723295  0.95951194     0.11400
H2020       H  0.44243048  0.79304350  0.94519049     0.12600
H2021       H  0.45861523  0.81974250  0.92135061     0.11600
H2022       H  0.39266963  0.85307381  0.89510377     0.08700
H2023       H  0.40959526  0.87834857  0.87051123     0.11900
H2024       H  0.45900767  0.85002545  0.89295333     0.13800
C2025       C  0.34266125  0.74310626  0.83775123    -0.01700
C2026       C  0.33326611  0.75852417  0.82478344    -0.09700
C2027       C  0.33337498  0.76415400  0.78056104    -0.18600
C2028       C  0.34311670  0.75455855  0.74799560     0.03800
C2029       C  0.35264300  0.73898311  0.76161349     0.18000
C2030       C  0.35208151  0.73330363  0.80573923    -0.20000
C2031       C  0.36313443  0.72936353  0.73145072    -0.21200
C2032       C  0.36478173  0.73512665  0.68799277    -0.19800
C2033       C  0.35557780  0.75034979  0.67342468     0.19400
C2034       C  0.34419249  0.76004858  0.70273471     0.01500
C2035       C  0.33449228  0.77479854  0.68534373    -0.14500
C2036       C  0.33655176  0.77998470  0.64109184    -0.12200
C2037       C  0.34852070  0.77085814  0.61353390     0.01100
C2038       C  0.35786557  0.75602488  0.62962624    -0.24400
H2039       H  0.32610063  0.76649532  0.84903271     0.09100
H2040       H  0.32615940  0.77630996  0.77315666     0.12600
H2041       H  0.35959392  0.72147241  0.81541542     0.11400
H2042       H  0.37044289  0.71750479  0.74179265     0.12600
H2043       H  0.37332403  0.72761751  0.66559889     0.18000
H2044       H  0.32523616  0.78252308  0.70500622     0.08700
H2045       H  0.32924694  0.79152155  0.62876181     0.11900
H2046       H  0.36698924  0.74889456  0.60782467     0.13800
C2047       C  0.35529657  0.75982162  0.11371171    -0.01700
C2048       C  0.34835632  0.77689135  0.12288810    -0.09700
C2049       C  0.34513384  0.78223118  0.16659204    -0.18600
C2050       C  0.34868871  0.77049982  0.20242930     0.03800
C2051       C  0.35496376  0.75291927  0.19242692     0.18000
C2052       C  0.35828367  0.74784381  0.14860511    -0.20000
C2053       C  0.35815484  0.74049826  0.22620477    -0.21200
C2054       C  0.35574724  0.74529965  0.27012742    -0.19800
C2055       C  0.35032880  0.76269547  0.28125001     0.19400
C2056       C  0.34656970  0.77557356  0.24777585     0.01500
C2057       C  0.34142403  0.79304427  0.26136521    -0.14500
C2058       C  0.34064537  0.79760777  0.30634165    -0.12200
C2059       C  0.34474948  0.78487478  0.33893865     0.01100
C2060       C  0.34919071  0.76736705  0.32596402    -0.24400
H2061       H  0.34569722  0.78627481  0.09625390     0.09100
H2062       H  0.33993998  0.79559308  0.17125320     0.12600
H2063       H  0.36325330  0.73444250  0.14165802     0.11400
H2064       H  0.36275029  0.72703170  0.21862815     0.12600
H2065       H  0.35855169  0.73544414  0.29565397     0.11600
H2066       H  0.33836853  0.80357756  0.23808971     0.08700
H2067       H  0.33714657  0.81122147  0.31555190     0.11900
H2068       H  0.35236806  0.75733779  0.35082578     0.13800
C2069       C  0.29913796  0.72546462  0.99091442    -0.01700
C2070       C  0.28846362  0.73602663  0.96322167    -0.09700
C2071       C  0.26988819  0.73652244  0.96850103    -0.18600
C2072       C  0.26134175  0.72649183  0.00227920     0.03800
C2073       C  0.27228322  0.71545894  0.02976534     0.18000
C2074       C  0.29103448  0.71501991  0.02383181    -0.20000
C2075       C  0.26447199  0.70524470  0.06359347    -0.21200
C2076       C  0.24607680  0.70590269  0.07118573    -0.19800
C2077       C  0.23496720  0.71679805  0.04518061     0.19400
C2078       C  0.24242001  0.72722254  0.01023169     0.01500
C2079       C  0.23062189  0.73812678  0.98526964    -0.14500
C2080       C  0.21231881  0.73881139  0.99495818    -0.12200
C2081       C  0.20499341  0.72859666  0.02955670     0.01100
C2082       C  0.21645154  0.71750133  0.05433475    -0.24400
H2083       H  0.29461524  0.74426087  0.93778290     0.09100
H2084       H  0.26265850  0.74509711  0.94601574     0.12600
H2085       H  0.29936397  0.70695235  0.04551287     0.11400
H2086       H  0.27267689  0.69679277  0.08462539     0.12600
H2087       H  0.24050973  0.69792246  0.09790746     0.11600
H2088       H  0.23511809  0.74645794  0.95828476     0.08700
H2089       H  0.20385968  0.74753550  0.97529150     0.11900
H2090       H  0.21102736  0.70966195  0.08150118     0.13800
C2091       C  0.52214307  0.65650067  0.34359171    -0.01700
C2092       C  0.53030595  0.66936682  0.31626076    -0.09700
C2093       C  0.54565418  0.67864429  0.33029240    -0.18600
C2094       C  0.55314350  0.67558237  0.37272307     0.03800
C2095       C  0.54422202  0.66318488  0.40108310     0.18000
C2096       C  0.52919569  0.65355862  0.38604695    -0.20000
C2097       C  0.55023426  0.66055850  0.44452122    -0.21200
C2098       C  0.56479242  0.67016429  0.46072276    -0.19800
C2099       C  0.57418687  0.68207234  0.43333591     0.19400
C2100       C  0.56889937  0.68458538  0.38851345     0.01500
C2101       C  0.57978742  0.69577249  0.36157339    -0.14500
C2102       C  0.59486223  0.70461127  0.37907712    -0.12200
C2103       C  0.59924505  0.70289805  0.42402748     0.01100
C2104       C  0.58891362  0.69144983  0.45069231    -0.24400
H2105       H  0.52500087  0.67204068  0.28350320     0.09100
H2106       H  0.55121609  0.68835826  0.30759869     0.12600
H2107       H  0.52279082  0.64389382  0.40782318     0.11400
H2108       H  0.54343019  0.65122626  0.46640629     0.12600
H2109       H  0.56888171  0.66808527  0.49481720     0.11600
H2110       H  0.57708274  0.69772646  0.32678133     0.08700
H2111       H  0.60281712  0.71317273  0.35772457     0.11900
H2112       H  0.59249955  0.68967042  0.48527389     0.13800
C2113       C  0.44054836  0.67171453  0.37967279    -0.01700
C2114       C  0.42367325  0.66914860  0.39899084    -0.09700
C2115       C  0.41423684  0.68350318  0.41736224    -0.18600
C2116       C  0.42131708  0.70113259  0.41680967     0.03800
C2117       C  0.43884122  0.70358293  0.39934073     0.18000
C2118       C  0.44825190  0.68895213  0.38097502    -0.20000
C2119       C  0.44668930  0.72068901  0.39950425    -0.21200
C2120       C  0.43735925  0.73549031  0.41584393    -0.19800
C2121       C  0.41980991  0.73364428  0.43173912     0.19400
C2122       C  0.41154721  0.71641448  0.43240337     0.01500
C2123       C  0.39365872  0.71529573  0.44749522    -0.14500
C2124       C  0.38437306  0.73055628  0.46117971    -0.12200
C2125       C  0.39247148  0.74755353  0.46067945     0.01100
C2126       C  0.41032074  0.74896658  0.44618846    -0.24400
H2127       H  0.41748277  0.65598278  0.39913255     0.09100
H2128       H  0.40134824  0.68033244  0.43140646     0.12600
H2129       H  0.46137679  0.69112873  0.36651881     0.11400
H2130       H  0.46009831  0.72266627  0.38658269     0.12600
H2131       H  0.44379898  0.74853999  0.41525314     0.11600
H2132       H  0.38627749  0.70286553  0.44837840     0.08700
H2133       H  0.37061581  0.72897744  0.47197435     0.11900
H2134       H  0.41674002  0.76202974  0.44536951     0.13800
C2135       C  0.42098073  0.63466773  0.22255284    -0.01700
C2136       C  0.42439682  0.63064626  0.17814795    -0.09700
C2137       C  0.41368028  0.63787936  0.14464907    -0.18600
C2138       C  0.39940171  0.64971390  0.15485127     0.03800
C2139       C  0.39501424  0.65231136  0.20027692     0.18000
C2140       C  0.40586549  0.64484707  0.23361652    -0.20000
C2141       C  0.38057584  0.66331314  0.21213231    -0.21200
C2142       C  0.37112006  0.67278861  0.17998793    -0.19800
C2143       C  0.37609937  0.67175666  0.13531128     0.19400
C2144       C  0.39008581  0.65990742  0.12196066     0.01500
C2145       C  0.39509000  0.65985410  0.07675436    -0.14500
C2146       C  0.38739044  0.67185188  0.04686042    -0.12200
C2147       C  0.37411774  0.68387397  0.06050171     0.01100
C2148       C  0.36805549  0.68341196  0.10436698    -0.24400
H2149       H  0.43610573  0.62284726  0.16918316     0.09100
H2150       H  0.41737037  0.63453906  0.11109964     0.12600
H2151       H  0.40333384  0.64804095  0.26815656     0.11400
H2152       H  0.37697132  0.66510111  0.24666334     0.12600
H2153       H  0.36040952  0.68166050  0.19040934     0.11600
H2154       H  0.40563993  0.65145545  0.06392096     0.08700
H2155       H  0.39246869  0.67237023  0.01320531     0.11900
H2156       H  0.35813770  0.69311682  0.11516781     0.13800
C2157       C  0.44196168  0.36036942  0.16600574    -0.01700
C2158       C  0.44509164  0.34319887  0.18340917    -0.09700
C2159       C  0.43693055  0.32801139  0.16516123    -0.18600
C2160       C  0.42503069  0.32944995  0.12886625     0.03800
C2161       C  0.42207010  0.34684714  0.11073691     0.18000
C2162       C  0.43065475  0.36203439  0.12902113    -0.20000
C2163       C  0.41024645  0.34902959  0.07509353    -0.21200
C2164       C  0.40091996  0.33440963  0.05782360    -0.19800
C2165       C  0.40329400  0.31717143  0.07542231     0.19400
C2166       C  0.41566817  0.31434609  0.11059095     0.01500
C2167       C  0.41791424  0.29655250  0.12627556    -0.14500
C2168       C  0.40799149  0.28232059  0.10851796    -0.12200
C2169       C  0.39534233  0.28531266  0.07511754     0.01100
C2170       C  0.39315247  0.30276069  0.05846750    -0.24400
H2171       H  0.45385304  0.34146056  0.21172369     0.09100
H2172       H  0.43996761  0.31539147  0.18082335     0.12600
H2173       H  0.42804479  0.37523905  0.11534599     0.11400
H2174       H  0.40795294  0.36220600  0.06093854     0.12600
H2175       H  0.39165163  0.33663626  0.03072371     0.11600
H2176       H  0.42713729  0.29318044  0.15239510     0.08700
H2177       H  0.40982186  0.26895782  0.12200533     0.11900
H2178       H  0.38348034  0.30512366  0.03228326     0.13800
C2179       C  0.36882873  0.35018674  0.46576114    -0.01700
C2180       C  0.37803077  0.36518221  0.48210401    -0.09700
C2181       C  0.38634835  0.37723752  0.45310802    -0.18600
C2182       C  0.38561929  0.37461197  0.40665148     0.03800
C2183       C  0.37467627  0.36040512  0.39039045     0.18000
C2184       C  0.36657342  0.34827092  0.41994056    -0.20000
C2185       C  0.37280029  0.35770818  0.34472102    -0.21200
C2186       C  0.38263617  0.36793262  0.31478081    -0.19800
C2187       C  0.39488765  0.38080929  0.32986163     0.19400
C2188       C  0.39621976  0.38471898  0.37594527     0.01500
C2189       C  0.40921078  0.39746066  0.38947487    -0.14500
C2190       C  0.42158778  0.40443643  0.35923605    -0.12200
C2191       C  0.42089917  0.39961826  0.31443739     0.01100
C2192       C  0.40685320  0.38868539  0.29949742    -0.24400
H2193       H  0.37989972  0.36689338  0.51748342     0.09100
H2194       H  0.39376081  0.38808425  0.46807169     0.12600
H2195       H  0.35928956  0.33674603  0.40725400     0.11400
H2196       H  0.36418906  0.34714541  0.33210504     0.12600
H2197       H  0.38141071  0.36501947  0.27970136     0.11600
H2198       H  0.41093716  0.40137664  0.42359076     0.08700
H2199       H  0.43231000  0.41296749  0.37128753     0.11900
H2200       H  0.40640086  0.38478183  0.26486041     0.13800
C2201       C  0.46292032  0.46973771  0.23278127    -0.01700
C2202       C  0.44819575  0.47676104  0.25597517    -0.09700
C2203       C  0.44735721  0.49514893  0.26678432    -0.18600
C2204       C  0.46127704  0.50715150  0.25450707     0.03800
C2205       C  0.47604496  0.49986799  0.23072652     0.18000
C2206       C  0.47672675  0.48151289  0.22038162    -0.20000
C2207       C  0.49022080  0.51089419  0.21735417    -0.21200
C2208       C  0.49014758  0.52908895  0.22699542    -0.19800
C2209       C  0.47596641  0.53676094  0.25060529     0.19400
C2210       C  0.46128277  0.52602426  0.26488371     0.01500
C2211       C  0.44749157  0.53471702  0.28910260    -0.14500
C2212       C  0.44850764  0.55316149  0.29925831    -0.12200
C2213       C  0.46317526  0.56356965  0.28528087     0.01100
C2214       C  0.47666704  0.55516424  0.26044054    -0.24400
H2215       H  0.43740685  0.46798257  0.26635193     0.09100
H2216       H  0.43570801  0.49960917  0.28485910     0.12600
H2217       H  0.48824046  0.47636544  0.20250493     0.11400
H2218       H  0.50150627  0.50539225  0.19924596     0.12600
H2219       H  0.50137933  0.53721629  0.21614239     0.11600
H2220       H  0.43589830  0.52754068  0.30103434     0.08700
H2221       H  0.43785269  0.55924295  0.31844510     0.11900
H2222       H  0.48812425  0.56292055  0.24932591     0.13800
C2223       C  0.56811425  0.67669926  0.86734445    -0.01700
C2224       C  0.55830176  0.69178744  0.88087933    -0.09700
C2225       C  0.56691477  0.70684823  0.89896449    -0.18600
C2226       C  0.58580923  0.70746794  0.90333734     0.03800
C2227       C  0.59567987  0.69212949  0.88940102     0.18000
C2228       C  0.58680960  0.67692811  0.87235892    -0.20000
C2229       C  0.61441516  0.69215873  0.89162261    -0.21200
C2230       C  0.62364222  0.70720734  0.90665458    -0.19800
C2231       C  0.61439164  0.72253178  0.92070353     0.19400
C2232       C  0.59532432  0.72280848  0.92011600     0.01500
C2233       C  0.58670987  0.73843376  0.93632839    -0.14500
C2234       C  0.59662441  0.75315281  0.95189077    -0.12200
C2235       C  0.61541399  0.75298271  0.95118879     0.01100
C2236       C  0.62416736  0.73758512  0.93542789    -0.24400
H2237       H  0.54385581  0.69198966  0.87730917     0.09100
H2238       H  0.55846446  0.71794150  0.90831719     0.12600
H2239       H  0.59459124  0.66544950  0.86147841     0.11400
H2240       H  0.62202309  0.68053794  0.88098612     0.12600
H2241       H  0.63816162  0.70684057  0.90734277     0.11600
H2242       H  0.57233525  0.73962418  0.93773978     0.08700
H2243       H  0.58952619  0.76486115  0.96396051     0.11900
H2244       H  0.63869672  0.73719725  0.93528229     0.13800
C2245       C  0.63758315  0.68709223  0.57366653    -0.01700
C2246       C  0.63029600  0.67097012  0.55785634    -0.09700
C2247       C  0.62333221  0.65823077  0.58735466    -0.18600
C2248       C  0.62343652  0.66137760  0.63364526     0.03800
C2249       C  0.63279344  0.67676975  0.64938037     0.18000
C2250       C  0.63968016  0.68942666  0.61943318    -0.20000
C2251       C  0.63410119  0.68014639  0.69487588    -0.21200
C2252       C  0.62499248  0.66944404  0.72506311    -0.19800
C2253       C  0.61404901  0.65540110  0.71030434     0.19400
C2254       C  0.61353735  0.65069595  0.66459549     0.01500
C2255       C  0.60176861  0.63668707  0.65158193    -0.14500
C2256       C  0.58961960  0.62920229  0.68183007    -0.12200
C2257       C  0.58938357  0.63500763  0.72588028     0.01100
C2258       C  0.60229991  0.64725550  0.74044804    -0.24400
H2259       H  0.62874329  0.66879022  0.52255106     0.09100
H2260       H  0.61727914  0.64643828  0.57294102     0.12600
H2261       H  0.64562664  0.70174869  0.63182707     0.11400
H2262       H  0.64153748  0.69164478  0.70707596     0.12600
H2263       H  0.62557747  0.67292039  0.75993950     0.11600
H2264       H  0.60068756  0.63222833  0.61767572     0.08700
H2265       H  0.57950308  0.61991480  0.67002548     0.11900
H2266       H  0.60187015  0.65190190  0.77455431     0.13800
C2267       C  0.48545770  0.66174756  0.82769168    -0.01700
C2268       C  0.48693422  0.68016477  0.83590182    -0.09700
C2269       C  0.47191058  0.69014151  0.84878022    -0.18600
C2270       C  0.45485454  0.68192367  0.85307285     0.03800
C2271       C  0.45345281  0.66331617  0.84282310     0.18000
C2272       C  0.46869373  0.65344906  0.83076368    -0.20000
C2273       C  0.43692124  0.65452656  0.84557148    -0.21200
C2274       C  0.42180780  0.66359683  0.86026914    -0.19800
C2275       C  0.42286752  0.68166325  0.87272892     0.19400
C2276       C  0.43926755  0.69125779  0.86838273     0.01500
C2277       C  0.43940877  0.70957391  0.88097384    -0.14500
C2278       C  0.42426938  0.71759997  0.89986789    -0.12200
C2279       C  0.40846177  0.70773929  0.90634846     0.01100
C2280       C  0.40772219  0.68996242  0.89114571    -0.24400
H2281       H  0.49986206  0.68674105  0.83365289     0.09100
H2282       H  0.47411253  0.70417502  0.85564899     0.12600
H2283       H  0.46755234  0.63919053  0.82384001     0.11400
H2284       H  0.43574620  0.64041602  0.83717878     0.12600
H2285       H  0.40928980  0.65628398  0.86302870     0.11600
H2286       H  0.45114665  0.71791658  0.87776893     0.08700
H2287       H  0.42513505  0.73145644  0.91061851     0.11900
H2288       H  0.39551945  0.68223160  0.89542618     0.13800
C2289       C  0.52659261  0.61582472  0.95113270    -0.01700
C2290       C  0.53950096  0.61796177  0.98442969    -0.09700
C2291       C  0.53449459  0.61903328  0.02901701    -0.18600
C2292       C  0.51625314  0.61833275  0.04173042     0.03800
C2293       C  0.50318650  0.61667865  0.00761711     0.18000
C2294       C  0.50844985  0.61513915  0.96305505    -0.20000
C2295       C  0.48491563  0.61685300  0.01805838    -0.21200
C2296       C  0.47928588  0.61872551  0.06171595    -0.19800
C2297       C  0.49178796  0.62004590  0.09613661     0.19400
C2298       C  0.51046458  0.61952712  0.08686263     0.01500
C2299       C  0.52246550  0.62009397  0.12323249    -0.14500
C2300       C  0.51614422  0.62152652  0.16676979    -0.12200
C2301       C  0.49775998  0.62275670  0.17536058     0.01100
C2302       C  0.48567112  0.62190558  0.13988766    -0.24400
H2303       H  0.55358499  0.61882430  0.97595785     0.09100
H2304       H  0.54517834  0.62078503  0.05264322     0.12600
H2305       H  0.49833159  0.61398828  0.93739082     0.11400
H2306       H  0.47488938  0.61574416  0.99219105     0.12600
H2307       H  0.46503499  0.61902725  0.06864254     0.11600
H2308       H  0.53678301  0.61930739  0.11915099     0.08700
H2309       H  0.52570372  0.62210119  0.19376501     0.11900
H2310       H  0.47139176  0.62255816  0.14643478     0.13800
C2311       C  0.51021277  0.62086032  0.67197802    -0.01700
C2312       C  0.49214450  0.61649657  0.66517819    -0.09700
C2313       C  0.48570566  0.61255467  0.62270294    -0.18600
C2314       C  0.49726332  0.61266356  0.58549984     0.03800
C2315       C  0.51577341  0.61608547  0.59307619     0.18000
C2316       C  0.52198590  0.62035526  0.63578514    -0.20000
C2317       C  0.52797511  0.61545995  0.55788719    -0.21200
C2318       C  0.52215270  0.61197556  0.51499622    -0.19800
C2319       C  0.50392124  0.60950124  0.50601613     0.19400
C2320       C  0.49115523  0.60982386  0.54103636     0.01500
C2321       C  0.47281252  0.60813832  0.52965094    -0.14500
C2322       C  0.46741418  0.60698422  0.48528544    -0.12200
C2323       C  0.48009510  0.60683156  0.45105622     0.01100
C2324       C  0.49833786  0.60754913  0.46182998    -0.24400
H2325       H  0.48283032  0.61648389  0.69273259     0.09100
H2326       H  0.47163913  0.60944404  0.62003929     0.12600
H2327       H  0.53608476  0.62326162  0.64088439     0.11400
H2328       H  0.54212752  0.61784425  0.56351504     0.12600
H2329       H  0.53193200  0.61179151  0.48841968     0.11600
H2330       H  0.46229156  0.60845335  0.55411146     0.08700
H2331       H  0.45323674  0.60653320  0.47764918     0.11900
H2332       H  0.50821584  0.60778927  0.43544073     0.13800
C2333       C  0.40052462  0.33608261  0.62387987    -0.01700
C2334       C  0.40018307  0.35485340  0.62497872    -0.09700
C2335       C  0.41540903  0.36460692  0.63756371    -0.18600
C2336       C  0.43148797  0.35576548  0.64966896     0.03800
C2337       C  0.43134549  0.33665430  0.65063749     0.18000
C2338       C  0.41604150  0.32705537  0.63719149    -0.20000
C2339       C  0.44661667  0.32721139  0.66402387    -0.21200
C2340       C  0.46211134  0.33630994  0.67640886    -0.19800
C2341       C  0.46290623  0.35508264  0.67466848     0.19400
C2342       C  0.44770740  0.36510356  0.66060159     0.01500
C2343       C  0.44956391  0.38397433  0.65738488    -0.14500
C2344       C  0.46565008  0.39251229  0.66865825    -0.12200
C2345       C  0.48037814  0.38263874  0.68411560     0.01100
C2346       C  0.47888155  0.36388245  0.68680031    -0.24400
H2347       H  0.38835935  0.36201607  0.61397599     0.09100
H2348       H  0.41425263  0.37904447  0.63700767     0.12600
H2349       H  0.41633576  0.31249491  0.63584634     0.11400
H2350       H  0.44656982  0.31266097  0.66500761     0.12600
H2351       H  0.47365889  0.32857506  0.68687937     0.11600
H2352       H  0.43885549  0.39250567  0.64588002     0.08700
H2353       H  0.46643008  0.40700123  0.66607782     0.11900
H2354       H  0.49024731  0.35606446  0.69814747     0.13800
C2355       C  0.52405637  0.43477539  0.58502517    -0.01700
C2356       C  0.53618761  0.43930399  0.55141701    -0.09700
C2357       C  0.53076169  0.43925670  0.50693485    -0.18600
C2358       C  0.51325249  0.43369377  0.49495214     0.03800
C2359       C  0.50116437  0.42907037  0.52958263     0.18000
C2360       C  0.50641926  0.43041477  0.57395082    -0.20000
C2361       C  0.48426491  0.42197621  0.51986240    -0.21200
C2362       C  0.47940723  0.41841513  0.47638038    -0.19800
C2363       C  0.49094421  0.42278507  0.44150741     0.19400
C2364       C  0.50763215  0.43137885  0.45002295     0.01500
C2365       C  0.51799809  0.43693895  0.41317918    -0.14500
C2366       C  0.51245976  0.43307742  0.36984653    -0.12200
C2367       C  0.49677314  0.42322748  0.36229434     0.01100
C2368       C  0.48595689  0.41836495  0.39809331    -0.24400
H2369       H  0.54996107  0.44252198  0.55953673     0.09100
H2370       H  0.54080494  0.44253935  0.48254693     0.12600
H2371       H  0.49714989  0.42649072  0.59995666     0.11400
H2372       H  0.47506837  0.41833581  0.54621598     0.12600
H2373       H  0.46655058  0.41213676  0.46998191     0.11600
H2374       H  0.53031856  0.44435816  0.41695542     0.08700
H2375       H  0.52075782  0.43725136  0.34222690     0.11900
H2376       H  0.47354672  0.41116302  0.39200099     0.13800
C2377       C  0.48673309  0.41769450  0.08529880    -0.01700
C2378       C  0.50341098  0.41054213  0.07323542    -0.09700
C2379       C  0.50824889  0.40870618  0.02894226    -0.18600
C2380       C  0.49652468  0.41396983  0.99459642     0.03800
C2381       C  0.47988641  0.42188511  0.00667339     0.18000
C2382       C  0.47504874  0.42349804  0.05172957    -0.20000
C2383       C  0.46824405  0.42812039  0.97365334    -0.21200
C2384       C  0.47279777  0.42667975  0.92894293    -0.19800
C2385       C  0.48890062  0.41853470  0.91602368     0.19400
C2386       C  0.50082833  0.41177988  0.94877074     0.01500
C2387       C  0.51646724  0.40286966  0.93426181    -0.14500
C2388       C  0.52039259  0.40121863  0.88937213    -0.12200
C2389       C  0.50901005  0.40842324  0.85699618     0.01100
C2390       C  0.49317129  0.41701624  0.87059282    -0.24400
H2391       H  0.51283382  0.40610710  0.09825037     0.09100
H2392       H  0.52139558  0.40324576  0.02281236     0.12600
H2393       H  0.46219738  0.42925445  0.06060270     0.11400
H2394       H  0.45558201  0.43428078  0.98247199     0.12600
H2395       H  0.46356613  0.43179946  0.90427653     0.11600
H2396       H  0.52591922  0.39679552  0.95673690     0.08700
H2397       H  0.53264310  0.39438826  0.88006658     0.11900
H2398       H  0.48413986  0.42246665  0.84587865     0.13800
C2399       C  0.54157632  0.47248249  0.75231456    -0.01700
C2400       C  0.55748418  0.48207280  0.74486571    -0.09700
C2401       C  0.55855593  0.50050972  0.75433533    -0.18600
C2402       C  0.54353648  0.51004139  0.77082204     0.03800
C2403       C  0.52742728  0.50020059  0.77779677     0.18000
C2404       C  0.52670296  0.48169081  0.76925057    -0.20000
C2405       C  0.51193519  0.50890291  0.79254370    -0.21200
C2406       C  0.51195307  0.52727316  0.80010713    -0.19800
C2407       C  0.52755790  0.53737582  0.79396988     0.19400
C2408       C  0.54371094  0.52895871  0.77999500     0.01500
C2409       C  0.55920749  0.53989833  0.77602115    -0.14500
C2410       C  0.55853469  0.55839618  0.78511260    -0.12200
C2411       C  0.54237867  0.56654467  0.79737174     0.01100
C2412       C  0.52700440  0.55593191  0.80174102    -0.24400
H2413       H  0.56913988  0.47531047  0.73149893     0.09100
H2414       H  0.57117124  0.50701780  0.74761097     0.12600
H2415       H  0.51421901  0.47452241  0.77447107     0.11400
H2416       H  0.49961256  0.50147109  0.79773662     0.12600
H2417       H  0.49965074  0.53362829  0.81100416     0.11600
H2418       H  0.57200862  0.53451536  0.76621273     0.08700
H2419       H  0.57055467  0.56643099  0.78145280     0.11900
H2420       H  0.51450989  0.56219136  0.81171975     0.13800
C2421       C  0.56439589  0.17275714  0.16531169    -0.01700
C2422       C  0.55472454  0.18698603  0.14674731    -0.09700
C2423       C  0.56357743  0.20174029  0.12830414    -0.18600
C2424       C  0.58250810  0.20289785  0.12871812     0.03800
C2425       C  0.59222919  0.18852752  0.14832576     0.18000
C2426       C  0.58316670  0.17353636  0.16548307    -0.20000
C2427       C  0.61091518  0.18938452  0.15171846    -0.21200
C2428       C  0.62018865  0.20437248  0.13665154    -0.19800
C2429       C  0.61104891  0.21864289  0.11670657     0.19400
C2430       C  0.59212426  0.21795673  0.11144769     0.01500
C2431       C  0.58370403  0.23235372  0.08901988    -0.14500
C2432       C  0.59361720  0.24699016  0.07355186    -0.12200
C2433       C  0.61214481  0.24787665  0.08038580     0.01100
C2434       C  0.62077257  0.23361168  0.10187490    -0.24400
H2435       H  0.54020577  0.18675603  0.14670800     0.09100
H2436       H  0.55520667  0.21224399  0.11509491     0.12600
H2437       H  0.59075643  0.16274826  0.18064715     0.11400
H2438       H  0.61838676  0.17852160  0.16686924     0.12600
H2439       H  0.63462728  0.20476673  0.14044292     0.11600
H2440       H  0.56950788  0.23260951  0.08245483     0.08700
H2441       H  0.58669786  0.25778847  0.05666448     0.11900
H2442       H  0.63517575  0.23404280  0.10659752     0.13800
C2443       C  0.58280257  0.39852006  0.80559728    -0.01700
C2444       C  0.59912141  0.39095064  0.79265589    -0.09700
C2445       C  0.61079514  0.38370542  0.82422393    -0.18600
C2446       C  0.60613732  0.38341610  0.86972482     0.03800
C2447       C  0.58982359  0.39190404  0.88253071     0.18000
C2448       C  0.57845432  0.39945462  0.85052470    -0.20000
C2449       C  0.58437419  0.39186078  0.92687098    -0.21200
C2450       C  0.59418121  0.38261857  0.95854151    -0.19800
C2451       C  0.60966869  0.37322374  0.94660643     0.19400
C2452       C  0.61633131  0.37398531  0.90248506     0.01500
C2453       C  0.63221299  0.36426846  0.89275664    -0.14500
C2454       C  0.63992323  0.35278645  0.92427939    -0.12200
C2455       C  0.63218985  0.35102346  0.96624334     0.01100
C2456       C  0.61772879  0.36196195  0.97789301    -0.24400
H2457       H  0.60247175  0.38991266  0.75779248     0.09100
H2458       H  0.62294302  0.37770737  0.81181502     0.12600
H2459       H  0.56561393  0.40503331  0.86027163     0.11400
H2460       H  0.57203338  0.39839836  0.93681657     0.12600
H2461       H  0.58918848  0.38218407  0.99227911     0.11600
H2462       H  0.63842319  0.36455669  0.86049505     0.08700
H2463       H  0.65109743  0.34433744  0.91481237     0.11900
H2464       H  0.61179834  0.36054938  0.01058291     0.13800
C2465       C  0.59809560  0.32968318  0.12021511    -0.01700
C2466       C  0.60074731  0.34644977  0.14028223    -0.09700
C2467       C  0.58661094  0.35541755  0.16110153    -0.18600
C2468       C  0.56916598  0.34792425  0.16235007     0.03800
C2469       C  0.56665668  0.33067525  0.14314096     0.18000
C2470       C  0.58101480  0.32178917  0.12236348    -0.20000
C2471       C  0.54976473  0.32247445  0.14425973    -0.21200
C2472       C  0.53519936  0.33112501  0.16360685    -0.19800
C2473       C  0.53705969  0.34833713  0.18173533     0.19400
C2474       C  0.55409373  0.35697729  0.18141457     0.01500
C2475       C  0.55519218  0.37448781  0.19921386    -0.14500
C2476       C  0.54003445  0.38315564  0.21570204    -0.12200
C2477       C  0.52318234  0.37477351  0.21544203     0.01100
C2478       C  0.52187307  0.35717133  0.19908640    -0.24400
H2479       H  0.61379190  0.35283191  0.13942312     0.09100
H2480       H  0.58978399  0.36823755  0.17567063     0.12600
H2481       H  0.57874594  0.30881546  0.10700377     0.11400
H2482       H  0.54777114  0.30928871  0.12983138     0.12600
H2483       H  0.52230046  0.32442084  0.16368307     0.11600
H2484       H  0.56749092  0.38205902  0.20000050     0.08700
H2485       H  0.54153239  0.39674064  0.22802874     0.11900
H2486       H  0.50892764  0.35055374  0.19846177     0.13800
C2487       C  0.79754715  0.30824060  0.96732633    -0.01700
C2488       C  0.79042454  0.32215065  0.99312372    -0.09700
C2489       C  0.77194316  0.32313321  0.00137743    -0.18600
C2490       C  0.75993870  0.31017064  0.98385181     0.03800
C2491       C  0.76721490  0.29653421  0.95622427     0.18000
C2492       C  0.78574064  0.29571106  0.94832721    -0.20000
C2493       C  0.75604263  0.28347173  0.93744967    -0.21200
C2494       C  0.73781393  0.28323213  0.94677426    -0.19800
C2495       C  0.73028256  0.29603135  0.97517943     0.19400
C2496       C  0.74111901  0.30989603  0.99355209     0.01500
C2497       C  0.73268386  0.32253392  0.02172575    -0.14500
C2498       C  0.71451156  0.32096850  0.03272975    -0.12200
C2499       C  0.70406906  0.30687219  0.01590271     0.01100
C2500       C  0.71202501  0.29471449  0.98622384    -0.24400
H2501       H  0.79923004  0.33199959  0.00814211     0.09100
H2502       H  0.76750019  0.33400834  0.02223119     0.12600
H2503       H  0.79103891  0.28499299  0.92781205     0.11400
H2504       H  0.76150176  0.27314455  0.91603652     0.12600
H2505       H  0.72960889  0.27272505  0.93235740     0.11600
H2506       H  0.73985480  0.33359698  0.03647157     0.08700
H2507       H  0.70871058  0.33067233  0.05530615     0.11900
H2508       H  0.70410617  0.28383578  0.97248941     0.13800
C2509       C  0.89407524  0.24884910  0.95418056    -0.01700
C2510       C  0.88624147  0.23174240  0.95459420    -0.09700
C2511       C  0.89558602  0.21675142  0.93980251    -0.18600
C2512       C  0.91328495  0.21823720  0.92367319     0.03800
C2513       C  0.92132595  0.23557116  0.92320140     0.18000
C2514       C  0.91175214  0.25066473  0.93872484    -0.20000
C2515       C  0.93871096  0.23772486  0.90643301    -0.21200
C2516       C  0.94809295  0.22310875  0.88920269    -0.19800
C2517       C  0.94043594  0.20590803  0.88887038     0.19400
C2518       C  0.92305922  0.20319186  0.90698820     0.01500
C2519       C  0.91609132  0.18553086  0.90711888    -0.14500
C2520       C  0.92548396  0.17137884  0.88797068    -0.12200
C2521       C  0.94222494  0.17415678  0.86823631     0.01100
C2522       C  0.94984969  0.19143403  0.86972914    -0.24400
H2523       H  0.87261050  0.22986610  0.96606104     0.09100
H2524       H  0.88834996  0.20422571  0.94073092     0.12600
H2525       H  0.91792135  0.26384831  0.93785156     0.11400
H2526       H  0.94498251  0.25085518  0.90595397     0.12600
H2527       H  0.96138029  0.22530187  0.87573781     0.11600
H2528       H  0.90329068  0.18213863  0.92141294     0.08700
H2529       H  0.91935641  0.15818221  0.88786940     0.11900
H2530       H  0.96285276  0.19376469  0.85475238     0.13800
C2531       C  0.86918783  0.34893869  0.05558030    -0.01700
C2532       C  0.86558164  0.34863701  0.10108465    -0.09700
C2533       C  0.87398648  0.36078267  0.12964732    -0.18600
C2534       C  0.88696426  0.37304773  0.11356522     0.03800
C2535       C  0.89031173  0.37340470  0.06717199     0.18000
C2536       C  0.88090030  0.36191157  0.03860510    -0.20000
C2537       C  0.90395669  0.38424836  0.04988669    -0.21200
C2538       C  0.91516290  0.39388192  0.07798965    -0.19800
C2539       C  0.91248457  0.39349074  0.12387942     0.19400
C2540       C  0.89772380  0.38390387  0.14209836     0.01500
C2541       C  0.89488803  0.38498736  0.18832718    -0.14500
C2542       C  0.90732227  0.39349680  0.21573412    -0.12200
C2543       C  0.92294642  0.40109051  0.19799474     0.01100
C2544       C  0.92501564  0.40182405  0.15188789    -0.24400
H2545       H  0.85681908  0.33844716  0.11482181     0.09100
H2546       H  0.87098106  0.35938762  0.16442688     0.12600
H2547       H  0.88406608  0.36183344  0.00350576     0.11400
H2548       H  0.90655420  0.38456561  0.01454108     0.12600
H2549       H  0.92621940  0.40138032  0.06380747     0.11600
H2550       H  0.88343793  0.37898975  0.20434187     0.08700
H2551       H  0.90528805  0.39296822  0.25128047     0.11900
H2552       H  0.93690909  0.40800406  0.13791382     0.13800
C2553       C  0.90610663  0.33138406  0.91117571    -0.01700
C2554       C  0.91198797  0.32779599  0.86798389    -0.09700
C2555       C  0.92732259  0.33634522  0.85102184    -0.18600
C2556       C  0.93688035  0.34919231  0.87652178     0.03800
C2557       C  0.93018096  0.35333724  0.91944412     0.18000
C2558       C  0.91531736  0.34413137  0.93660748    -0.20000
C2559       C  0.93824138  0.36677473  0.94502717    -0.21200
C2560       C  0.95276342  0.37640251  0.92878403    -0.19800
C2561       C  0.96011090  0.37231750  0.88733694     0.19400
C2562       C  0.95260826  0.35833804  0.86099966     0.01500
C2563       C  0.96137068  0.35402487  0.82078333    -0.14500
C2564       C  0.97657611  0.36357127  0.80683263    -0.12200
C2565       C  0.98338744  0.37790972  0.83201567     0.01100
C2566       C  0.97505528  0.38209827  0.87235470    -0.24400
H2567       H  0.90496527  0.31805560  0.84771986     0.09100
H2568       H  0.93122060  0.33290999  0.81764225     0.12600
H2569       H  0.91066229  0.34714469  0.96985262     0.11400
H2570       H  0.93312006  0.37004538  0.97765784     0.12600
H2571       H  0.95847984  0.38694979  0.94915892     0.11600
H2572       H  0.95691644  0.34315692  0.79982586     0.08700
H2573       H  0.98287533  0.35985889  0.77581910     0.11900
H2574       H  0.98036495  0.39291341  0.89257807     0.13800
C2575       C  0.65107394  0.26332370  0.41158297    -0.01700
C2576       C  0.65399292  0.28153932  0.40258751    -0.09700
C2577       C  0.65727086  0.28738982  0.35920029    -0.18600
C2578       C  0.65796671  0.27506255  0.32341160     0.03800
C2579       C  0.65604159  0.25649982  0.33334339     0.18000
C2580       C  0.65243300  0.25087476  0.37687250    -0.20000
C2581       C  0.65744629  0.24363533  0.29967810    -0.21200
C2582       C  0.66023991  0.24881092  0.25594411    -0.19800
C2583       C  0.66135107  0.26700362  0.24461272     0.19400
C2584       C  0.66022990  0.28042315  0.27814932     0.01500
C2585       C  0.66071364  0.29860443  0.26464793    -0.14500
C2586       C  0.66169347  0.30321262  0.21980160    -0.12200
C2587       C  0.66264907  0.28995628  0.18689432     0.01100
C2588       C  0.66288442  0.27185740  0.19966680    -0.24400
H2589       H  0.65326266  0.29136725  0.42902083     0.09100
H2590       H  0.65918448  0.30161309  0.35473328     0.12600
H2591       H  0.65064051  0.23668720  0.38379579     0.11400
H2592       H  0.65620338  0.22944992  0.30716974     0.12600
H2593       H  0.66106748  0.23851024  0.23062202     0.11600
H2594       H  0.65969981  0.30957255  0.28780173     0.08700
H2595       H  0.66133500  0.31728927  0.21074520     0.11900
H2596       H  0.66322092  0.26149756  0.17439564     0.13800
C2597       C  0.65910354  0.24584860  0.68930225    -0.01700
C2598       C  0.66119225  0.26402862  0.69994951    -0.09700
C2599       C  0.65949970  0.26992000  0.74352881    -0.18600
C2600       C  0.65575372  0.25770468  0.77813222     0.03800
C2601       C  0.65525240  0.23908337  0.76780685     0.18000
C2602       C  0.65659555  0.23334113  0.72350385    -0.20000
C2603       C  0.65307541  0.22640932  0.80167935    -0.21200
C2604       C  0.65105529  0.23188861  0.84554906    -0.19800
C2605       C  0.65042043  0.25018003  0.85630642     0.19400
C2606       C  0.65240621  0.26334241  0.82251420     0.01500
C2607       C  0.65026252  0.28159233  0.83422663    -0.14500
C2608       C  0.64669537  0.28656976  0.87781786    -0.12200
C2609       C  0.64547911  0.27364137  0.91132895     0.01100
C2610       C  0.64743771  0.25544224  0.90049211    -0.24400
H2611       H  0.66342230  0.27391718  0.67418165     0.09100
H2612       H  0.66119577  0.28412018  0.74905746     0.12600
H2613       H  0.65541729  0.21918196  0.71556405     0.11400
H2614       H  0.65294230  0.21216856  0.79419923     0.12600
H2615       H  0.64947479  0.22176369  0.87105363     0.11600
H2616       H  0.65076102  0.29231289  0.81028784     0.08700
H2617       H  0.64510017  0.30070472  0.88546698     0.11900
H2618       H  0.64615178  0.24536819  0.92625465     0.13800
C2619       C  0.63760726  0.18594777  0.45980309    -0.01700
C2620       C  0.64060258  0.18827309  0.41446979    -0.09700
C2621       C  0.63324574  0.17623933  0.38387901    -0.18600
C2622       C  0.62196814  0.16202965  0.39811301     0.03800
C2623       C  0.62008267  0.15916894  0.44449363     0.18000
C2624       C  0.62832071  0.17083347  0.47474519    -0.20000
C2625       C  0.60850450  0.14587562  0.46050506    -0.21200
C2626       C  0.59731635  0.13658382  0.43167947    -0.19800
C2627       C  0.59791182  0.13996170  0.38609432     0.19400
C2628       C  0.61104857  0.15186245  0.36838432     0.01500
C2629       C  0.61166122  0.15411530  0.32189541    -0.14500
C2630       C  0.59838356  0.14675275  0.29492029    -0.12200
C2631       C  0.58447940  0.13659399  0.31321407     0.01100
C2632       C  0.58468644  0.13251043  0.35840614    -0.24400
H2633       H  0.64754506  0.20011491  0.40256106     0.09100
H2634       H  0.63542332  0.17929142  0.34938183     0.12600
H2635       H  0.62577875  0.16933368  0.50999393     0.11400
H2636       H  0.60718226  0.14353139  0.49582292     0.12600
H2637       H  0.58760810  0.12725937  0.44531984     0.11600
H2638       H  0.62177687  0.16208677  0.30564244     0.08700
H2639       H  0.59841558  0.14982463  0.25979656     0.11900
H2640       H  0.57383983  0.12464265  0.37245437     0.13800
C2641       C  0.59654710  0.20496092  0.60880756    -0.01700
C2642       C  0.59763330  0.18641563  0.61635058    -0.09700
C2643       C  0.58356304  0.17705841  0.63615611    -0.18600
C2644       C  0.56773862  0.18595571  0.64956823     0.03800
C2645       C  0.56690219  0.20488785  0.64374758     0.18000
C2646       C  0.58111738  0.21416200  0.62287813    -0.20000
C2647       C  0.55186709  0.21438565  0.65876047    -0.21200
C2648       C  0.53758965  0.20546789  0.67901304    -0.19800
C2649       C  0.53769434  0.18673697  0.68358639     0.19400
C2650       C  0.55273283  0.17671475  0.66841833     0.01500
C2651       C  0.55188991  0.15779971  0.67148596    -0.14500
C2652       C  0.53676323  0.14922414  0.68836654    -0.12200
C2653       C  0.52200226  0.15904305  0.70367978     0.01100
C2654       C  0.52265969  0.17787637  0.70198888    -0.24400
H2655       H  0.60938629  0.17892973  0.60622071     0.09100
H2656       H  0.58559650  0.16287297  0.64082103     0.12600
H2657       H  0.58020346  0.22854756  0.61782398     0.11400
H2658       H  0.55115619  0.22883837  0.65490365     0.12600
H2659       H  0.52619808  0.21324953  0.69028244     0.11600
H2660       H  0.56245505  0.14916638  0.65985292     0.08700
H2661       H  0.53658684  0.13467196  0.68920328     0.11900
H2662       H  0.51118450  0.18557350  0.71313990     0.13800
C2663       C  0.61215651  0.28846675  0.57413463    -0.01700
C2664       C  0.59461377  0.29117689  0.55882593    -0.09700
C2665       C  0.58493444  0.30655980  0.57093622    -0.18600
C2666       C  0.59259936  0.31988385  0.59862571     0.03800
C2667       C  0.61037489  0.31698117  0.61406659     0.18000
C2668       C  0.61981998  0.30142722  0.60206474    -0.20000
C2669       C  0.61873789  0.32963917  0.64140513    -0.21200
C2670       C  0.60984613  0.34518058  0.65400016    -0.19800
C2671       C  0.59229644  0.34841665  0.63988156     0.19400
C2672       C  0.58333925  0.33587631  0.61197144     0.01500
C2673       C  0.56544344  0.33979923  0.59956639    -0.14500
C2674       C  0.55662723  0.35503318  0.61604696    -0.12200
C2675       C  0.56552317  0.36709789  0.64407878     0.01100
C2676       C  0.58348974  0.36392406  0.65482066    -0.24400
H2677       H  0.58831903  0.28135799  0.53737407     0.09100
H2678       H  0.57152616  0.30769543  0.55793692     0.12600
H2679       H  0.63338273  0.29955884  0.61414256     0.11400
H2680       H  0.63228442  0.32748800  0.65324526     0.12600
H2681       H  0.61668683  0.35465027  0.67544524     0.11600
H2682       H  0.55777121  0.33110705  0.57817465     0.08700
H2683       H  0.54272859  0.35728094  0.60732004     0.11900
H2684       H  0.59037259  0.37307756  0.67706263     0.13800
C2685       C  0.83609150  0.24788336  0.32858349    -0.01700
C2686       C  0.83072487  0.23601686  0.29524018    -0.09700
C2687       C  0.83065489  0.24142934  0.25090036    -0.18600
C2688       C  0.83687014  0.25868224  0.23852172     0.03800
C2689       C  0.84242630  0.27060056  0.27273908     0.18000
C2690       C  0.84121869  0.26538137  0.31734919    -0.20000
C2691       C  0.85019634  0.28717681  0.26212962    -0.21200
C2692       C  0.85340655  0.29178490  0.21815726    -0.19800
C2693       C  0.84803466  0.28035753  0.18374942     0.19400
C2694       C  0.83884002  0.26408822  0.19337890     0.01500
C2695       C  0.83225857  0.25383489  0.15734808    -0.14500
C2696       C  0.83566597  0.25897593  0.11359048    -0.12200
C2697       C  0.84600751  0.27418859  0.10458426     0.01100
C2698       C  0.85196070  0.28497509  0.13967665    -0.24400
H2699       H  0.82697893  0.22235393  0.30347015     0.09100
H2700       H  0.82674905  0.23144921  0.22685961     0.12600
H2701       H  0.84568524  0.27444314  0.34322470     0.11400
H2702       H  0.85456789  0.29627144  0.28804122     0.12600
H2703       H  0.86015298  0.30435254  0.21100952     0.11600
H2704       H  0.82430914  0.24188439  0.16201163     0.08700
H2705       H  0.83070170  0.25070870  0.08668117     0.11900
H2706       H  0.85959087  0.29704265  0.13254241     0.13800
C2707       C  0.86255847  0.26110559  0.60006265    -0.01700
C2708       C  0.86962385  0.25007052  0.63330777    -0.09700
C2709       C  0.86775313  0.25451370  0.67781230    -0.18600
C2710       C  0.85860432  0.27023864  0.69090653     0.03800
C2711       C  0.85259120  0.28215703  0.65732908     0.18000
C2712       C  0.85436644  0.27739784  0.61226266    -0.20000
C2713       C  0.84480454  0.29862017  0.66915521    -0.21200
C2714       C  0.84278998  0.30337078  0.71368055    -0.19800
C2715       C  0.84784145  0.29146128  0.74744010     0.19400
C2716       C  0.85539688  0.27453817  0.73623988     0.01500
C2717       C  0.85900766  0.26232209  0.77080350    -0.14500
C2718       C  0.85622160  0.26701652  0.81477306    -0.12200
C2719       C  0.84977840  0.28405117  0.82630012     0.01100
C2720       C  0.84534849  0.29620978  0.79234253    -0.24400
H2721       H  0.87644240  0.23766993  0.62501628     0.09100
H2722       H  0.87381351  0.24541303  0.70116015     0.12600
H2723       H  0.84927505  0.28630471  0.58679880     0.11400
H2724       H  0.84037468  0.30793037  0.64383456     0.12600
H2725       H  0.83693106  0.31627540  0.72173715     0.11600
H2726       H  0.86371730  0.24885069  0.76499182     0.08700
H2727       H  0.85944766  0.25718442  0.84001086     0.11900
H2728       H  0.84005310  0.30932287  0.80077297     0.13800
C2729       C  0.70595228  0.22920202  0.53745580    -0.01700
C2730       C  0.71400289  0.21236280  0.53160987    -0.09700
C2731       C  0.73260282  0.21095347  0.52528420    -0.18600
C2732       C  0.74369201  0.22641101  0.52600026     0.03800
C2733       C  0.73540485  0.24321478  0.53522652     0.18000
C2734       C  0.71677368  0.24448531  0.53968267    -0.20000
C2735       C  0.74571313  0.25876743  0.53985628    -0.21200
C2736       C  0.76412778  0.25815641  0.53453192    -0.19800
C2737       C  0.77260676  0.24213299  0.52264185     0.19400
C2738       C  0.76261298  0.22599348  0.51773994     0.01500
C2739       C  0.77192537  0.21050263  0.50296732    -0.14500
C2740       C  0.79027455  0.21128786  0.49235661    -0.12200
C2741       C  0.79993883  0.22732551  0.49766365     0.01100
C2742       C  0.79099958  0.24248348  0.51389729    -0.24400
H2743       H  0.70584473  0.20032654  0.53091808     0.09100
H2744       H  0.73799504  0.19766180  0.52040911     0.12600
H2745       H  0.71063543  0.25746564  0.54572840     0.11400
H2746       H  0.73947664  0.27153408  0.54761684     0.12600
H2747       H  0.77173094  0.27048215  0.53824718     0.11600
H2748       H  0.76520211  0.19785308  0.49767855     0.08700
H2749       H  0.79686807  0.19939789  0.47968038     0.11900
H2750       H  0.79822451  0.25505129  0.51752767     0.13800
C2751       C  0.87339616  0.18579329  0.54301839    -0.01700
C2752       C  0.88321559  0.17062762  0.53065998    -0.09700
C2753       C  0.89085652  0.15952936  0.56288593    -0.18600
C2754       C  0.88935618  0.16378584  0.60849860     0.03800
C2755       C  0.87852363  0.17876137  0.62051949     0.18000
C2756       C  0.87048113  0.18940775  0.58779781    -0.20000
C2757       C  0.87677714  0.18382042  0.66493787    -0.21200
C2758       C  0.88645867  0.17505406  0.69764604    -0.19800
C2759       C  0.89799172  0.16094105  0.68670107     0.19400
C2760       C  0.89915386  0.15459511  0.64230162     0.01500
C2761       C  0.91090627  0.14006424  0.63349818    -0.14500
C2762       C  0.92203666  0.13318160  0.66673474    -0.12200
C2763       C  0.92159875  0.14047136  0.70937317     0.01100
C2764       C  0.90918767  0.15387036  0.71956135    -0.24400
H2765       H  0.88574523  0.16788300  0.49593384     0.09100
H2766       H  0.89861759  0.14833380  0.55100468     0.12600
H2767       H  0.86316217  0.20142782  0.59709719     0.11400
H2768       H  0.86846250  0.19514846  0.67423655     0.12600
H2769       H  0.88540874  0.17977527  0.73154615     0.11600
H2770       H  0.91229984  0.13422040  0.60102274     0.08700
H2771       H  0.93176218  0.12291480  0.65843929     0.11900
H2772       H  0.90900256  0.15951956  0.75273206     0.13800
C2773       C  0.97952258  0.16079673  0.29614150    -0.01700
C2774       C  0.96236399  0.15362091  0.28957944    -0.09700
C2775       C  0.94706689  0.16343815  0.30041596    -0.18600
C2776       C  0.94839650  0.18081110  0.31906018     0.03800
C2777       C  0.96577636  0.18850732  0.32316644     0.18000
C2778       C  0.98110990  0.17852972  0.31150860    -0.20000
C2779       C  0.96776896  0.20586085  0.34040360    -0.21200
C2780       C  0.95297780  0.21533864  0.35601652    -0.19800
C2781       C  0.93583989  0.20764556  0.35510967     0.19400
C2782       C  0.93321994  0.19046537  0.33555479     0.01500
C2783       C  0.91565348  0.18329574  0.33552858    -0.14500
C2784       C  0.90160167  0.19218837  0.35676239    -0.12200
C2785       C  0.90440971  0.20864209  0.37818102     0.01100
C2786       C  0.92145765  0.21663453  0.37563837    -0.24400
H2787       H  0.96070669  0.14016168  0.27653795     0.09100
H2788       H  0.93442425  0.15686490  0.29463802     0.12600
H2789       H  0.99430887  0.18433849  0.31608051     0.11400
H2790       H  0.98092444  0.21194615  0.34302115     0.12600
H2791       H  0.95505960  0.22852455  0.37036307     0.11600
H2792       H  0.91241841  0.17051642  0.32084534     0.08700
H2793       H  0.88855785  0.18579682  0.35762758     0.11900
H2794       H  0.92381608  0.22943680  0.39176016     0.13800
C2795       C  0.93846072  0.36115308  0.33760779    -0.01700
C2796       C  0.92610319  0.35245708  0.31006828    -0.09700
C2797       C  0.91612732  0.33793030  0.32558259    -0.18600
C2798       C  0.91848976  0.33140786  0.36920304     0.03800
C2799       C  0.93166437  0.33981789  0.39631150     0.18000
C2800       C  0.94119757  0.35482448  0.38070269    -0.20000
C2801       C  0.93531413  0.33313036  0.43869385    -0.21200
C2802       C  0.92610833  0.31827969  0.45489662    -0.19800
C2803       C  0.91262539  0.31012254  0.42967971     0.19400
C2804       C  0.90839329  0.31675733  0.38674045     0.01500
C2805       C  0.89402916  0.30864274  0.36358397    -0.14500
C2806       C  0.88449674  0.29439141  0.38207782    -0.12200
C2807       C  0.88905591  0.28759082  0.42381717     0.01100
C2808       C  0.90318396  0.29547455  0.44740686    -0.24400
H2809       H  0.92389569  0.35715458  0.27650279     0.09100
H2810       H  0.90689513  0.33195419  0.30242409     0.12600
H2811       H  0.95101594  0.36137855  0.40173642     0.11400
H2812       H  0.94547524  0.33933825  0.45932404     0.12600
H2813       H  0.92936005  0.31331832  0.48770002     0.11600
H2814       H  0.88961268  0.31318086  0.33150180     0.08700
H2815       H  0.87361958  0.28851760  0.36327250     0.11900
H2816       H  0.90661680  0.29042176  0.48003458     0.13800
loop_ 
_geom_bond_atom_site_label_1 
_geom_bond_atom_site_label_2 
_geom_bond_distance 
_geom_bond_site_symmetry_2 
_ccdc_geom_bond_type 
O1          Cr19   1.969       .  S
O1            C9   1.256       .  A
O2          Cr19   2.004       .  S
O2            C3   1.265       .  A
C3            O4   1.260       .  A
C3         C2685   1.469       .  S
O4          Cr20   1.971       .  S
O5          Cr20   2.023       .  S
O5            C6   1.272       .  A
C6            O7   1.261       .  A
C6         C2785   1.486       .  S
O7          Cr21   1.975       .  S
O8          Cr21   2.008       .  S
O8            C9   1.264       .  A
C9         C2807   1.474       .  S
O10         Cr19   2.019       .  S
O10          C18   1.268       .  A
O11         Cr19   1.965       .  S
O11          C12   1.259       .  A
C12          O13   1.269       .  A
C12        C2741   1.485       .  S
O13         Cr20   2.026       .  S
O14         Cr20   1.983       .  S
O14          C15   1.260       .  A
C15          O16   1.263       .  A
C15        C2751   1.462       .  S
O16         Cr21   2.000       .  S
O17         Cr21   1.969       .  S
O17          C18   1.261       .  A
C18        C2707   1.483       .  S
Cr19         O22   1.768       .  S
Cr20         O22   1.776       .  S
Cr21         O22   1.769       .  S
O23         Cr41   1.973       .  S
O23          C31   1.258       .  A
O24         Cr41   2.001       .  S
O24          C25   1.267       .  A
C25          O26   1.262       .  A
C25        C2597   1.475       .  S
O26         Cr42   1.975       .  S
O27         Cr42   2.012       .  S
O27          C28   1.268       .  A
C28          O29   1.263       .  A
C28        C2641   1.488       .  S
O29         Cr43   1.992       .  S
O30         Cr43   2.017       .  S
O30          C31   1.266       .  A
C31        C2663   1.488       .  S
O32         Cr41   2.018       .  S
O32          C40   1.267       .  A
O33         Cr41   1.973       .  S
O33          C34   1.260       .  A
C34          O35   1.264       .  A
C34        C2729   1.476       .  S
O35         Cr42   2.011       .  S
O36         Cr42   1.983       .  S
O36          C37   1.260       .  A
C37          O38   1.265       .  A
C37        C2619   1.461       .  S
O38         Cr43   1.999       .  S
O39         Cr43   1.975       .  S
O39          C40   1.260       .  A
C40        C2575   1.481       .  S
Cr41         O44   1.772       .  S
Cr42         O44   1.777       .  S
Cr43         O44   1.772       .  S
O45         Cr63   1.981   1_554  S
O45          C53   1.262       .  A
O46         Cr63   1.997       .  S
O46          C47   1.262       .  A
C47          O48   1.265       .  A
C47        C2487   1.487       .  S
O48         Cr64   2.004       .  S
O49         Cr64   2.020       .  S
O49          C50   1.269   1_556  A
C50          O51   1.257       .  A
C50        C2531   1.470       .  S
O51         Cr65   1.967       .  S
O52         Cr65   2.004       .  S
O52          C53   1.266       .  A
C53        C2697   1.470       .  S
O54         Cr63   2.000       .  S
O54          C62   1.265       .  A
O55         Cr63   1.960       .  S
O55          C56   1.262       .  A
C56          O57   1.270       .  A
C56        C2719   1.482       .  S
O57         Cr64   2.022       .  S
O58         Cr64   1.997       .  S
O58          C59   1.263       .  A
C59          O60   1.264       .  A
C59        C2553   1.480       .  S
O60         Cr65   2.003   1_556  S
O61         Cr65   1.992   1_556  S
O61          C62   1.261       .  A
C62        C2509   1.484       .  S
Cr63         O66   1.766       .  S
Cr64         O66   1.773       .  S
Cr65         O66   1.766   1_554  S
O67         Cr85   2.018   1_556  S
O67          C75   1.268       .  A
O68         Cr85   1.971       .  S
O68          C69   1.258       .  A
C69          O70   1.268       .  A
C69        C2499   1.489       .  S
O70         Cr86   2.021       .  S
O71         Cr86   1.994       .  S
O71          C72   1.261   1_554  A
C72          O73   1.263   1_556  A
C72        C2455   1.467       .  S
O73         Cr87   1.994       .  S
O74         Cr87   1.966   1_556  S
O74          C75   1.260       .  A
C75        C2609   1.473       .  S
O76         Cr85   1.965       .  S
O76          C84   1.255       .  A
O77         Cr85   2.014       .  S
O77          C78   1.269       .  A
C78          O79   1.260       .  A
C78        C2587   1.482       .  S
O79         Cr86   1.969       .  S
O80         Cr86   2.025       .  S
O80          C81   1.272       .  A
C81          O82   1.262       .  A
C81        C2465   1.485       .  S
O82         Cr87   1.972       .  S
O83         Cr87   2.010       .  S
O83          C84   1.264       .  A
C84        C2433   1.477       .  S
Cr85         O88   1.772       .  S
Cr86         O88   1.773       .  S
Cr87         O88   1.766       .  S
O89        Cr107   2.019       .  S
O89          C97   1.269       .  A
O90        Cr107   1.973       .  S
O90          C91   1.257       .  A
C91          O92   1.264       .  A
C91        C2399   1.486       .  S
O92        Cr108   2.016       .  S
O93        Cr108   1.986       .  S
O93          C94   1.263       .  A
C94          O95   1.266       .  A
C94        C2443   1.466       .  S
O95        Cr109   2.007       .  S
O96        Cr109   1.965       .  S
O96          C97   1.261       .  A
C97        C2389   1.485       .  S
O98        Cr107   1.980       .  S
O98         C106   1.258       .  A
O99        Cr107   2.008       .  S
O99         C100   1.270       .  A
C100        O101   1.262       .  A
C100       C2355   1.469       .  S
O101       Cr108   1.971       .  S
O102       Cr108   2.020       .  S
O102        C103   1.268       .  A
C103        O104   1.260       .  A
C103       C2675   1.479       .  S
O104       Cr109   1.982       .  S
O105       Cr109   2.008       .  S
O105        C106   1.264       .  A
C106       C2345   1.488       .  S
Cr107       O110   1.775       .  S
Cr108       O110   1.783       .  S
Cr109       O110   1.771       .  S
O111       Cr129   2.013       .  S
O111        C119   1.268       .  A
O112       Cr129   1.964       .  S
O112        C113   1.257       .  A
C113        O114   1.268       .  A
C113       C2411   1.478       .  S
O114       Cr130   2.023       .  S
O115       Cr130   1.990       .  S
O115        C116   1.260       .  A
C116        O117   1.263       .  A
C116       C2257   1.466       .  S
O117       Cr131   1.997       .  S
O118       Cr131   1.981       .  S
O118        C119   1.262       .  A
C119       C2311   1.483       .  S
O120       Cr129   1.966       .  S
O120        C128   1.255       .  A
O121       Cr129   2.005       .  S
O121        C122   1.267       .  A
C122        O123   1.261       .  A
C122       C2289   1.480       .  S
O123       Cr130   1.975       .  S
O124       Cr130   2.024       .  S
O124        C125   1.271       .  A
C125        O126   1.264       .  A
C125       C2223   1.488       .  S
O126       Cr131   1.985       .  S
O127       Cr131   2.011       .  S
O127        C128   1.263       .  A
C128       C2267   1.471       .  S
Cr129       O132   1.776       .  S
Cr130       O132   1.779       .  S
Cr131       O132   1.770       .  S
O133       Cr151   1.997       .  S
O133        C141   1.261       .  A
O134       Cr151   1.961       .  S
O134        C135   1.261       .  A
C135        O136   1.273       .  A
C135       C2377   1.484       .  S
O136       Cr152   2.031       .  S
O137       Cr152   1.990       .  S
O137        C138   1.264       .  A
C138        O139   1.267       .  A
C138       C2157   1.488       .  S
O139       Cr153   2.005       .  S
O140       Cr153   1.999       .  S
O140        C141   1.261       .  A
C141       C2477   1.488       .  S
O142       Cr151   1.971       .  S
O142        C150   1.261       .  A
O143       Cr151   1.996       .  S
O143        C144   1.262       .  A
C144        O145   1.264       .  A
C144       C2201   1.493       .  S
O145       Cr152   2.009       .  S
O146       Cr152   2.017       .  S
O146        C147   1.266       .  A
C147        O148   1.259       .  A
C147       C2191   1.476       .  S
O148       Cr153   1.976       .  S
O149       Cr153   2.013       .  S
O149        C150   1.270       .  A
C150       C2367   1.468       .  S
Cr151       O154   1.771       .  S
Cr152       O154   1.778       .  S
Cr153       O154   1.765       .  S
O155       Cr173   1.977       .  S
O155        C163   1.258       .  A
O156       Cr173   2.006       .  S
O156        C157   1.267       .  A
C157        O158   1.261       .  A
C157       C2323   1.479       .  S
O158       Cr174   1.977       .  S
O159       Cr174   2.022       .  S
O159        C160   1.273       .  A
C160        O161   1.262       .  A
C160       C2113   1.486       .  S
O161       Cr175   1.976       .  S
O162       Cr175   2.021       .  S
O162        C163   1.266       .  A
C163       C2091   1.485       .  S
O164       Cr173   2.023       .  S
O164        C172   1.269       .  A
O165       Cr173   1.972       .  S
O165        C166   1.260       .  A
C166        O167   1.270       .  A
C166       C2213   1.495       .  S
O167       Cr174   2.031       .  S
O168       Cr174   1.992       .  S
O168        C169   1.262       .  A
C169        O170   1.263       .  A
C169       C2135   1.467       .  S
O170       Cr175   2.001       .  S
O171       Cr175   1.968       .  S
O171        C172   1.259       .  A
C172       C2301   1.477       .  S
Cr173       O176   1.768       .  S
Cr174       O176   1.776       .  S
Cr175       O176   1.770       .  S
O177       Cr195   1.966       .  S
O177        C185   1.256       .  A
O178       Cr195   2.007       .  S
O178        C179   1.267       .  A
C179        O180   1.260       .  A
C179       C2025   1.477       .  S
O180       Cr196   1.963       .  S
O181       Cr196   2.017       .  S
O181        C182   1.270       .  A
C182        O183   1.262       .  A
C182       C2279   1.484       .  S
O183       Cr197   1.978   1_556  S
O184       Cr197   2.001   1_556  S
O184        C185   1.262       .  A
C185       C2003   1.469       .  S
O186       Cr195   2.007   1_554  S
O186        C194   1.266       .  A
O187       Cr195   1.969   1_554  S
O187        C188   1.255   1_554  A
C188        O189   1.266       .  A
C188       C2069   1.471       .  S
O189       Cr196   2.022       .  S
O190       Cr196   1.995   1_554  S
O190        C191   1.264       .  A
C191        O192   1.264       .  A
C191       C2147   1.468       .  S
O192       Cr197   1.998       .  S
O193       Cr197   1.964       .  S
O193        C194   1.261       .  A
C194       C2047   1.472       .  S
Cr195       O198   1.773       .  S
Cr196       O198   1.770       .  S
Cr197       O198   1.767   1_554  S
O199       Cr217   1.974       .  S
O199        C207   1.257       .  A
O200       Cr217   1.997       .  S
O200        C201   1.265       .  A
C201        O202   1.260       .  A
C201       C1993   1.461       .  S
O202       Cr218   1.964       .  S
O203       Cr218   2.023       .  S
O203        C204   1.271       .  A
C204        O205   1.263       .  A
C204       C1937   1.484       .  S
O205       Cr219   1.978       .  S
O206       Cr219   2.016       .  S
O206        C207   1.264       .  A
C207       C1893   1.481       .  S
O208       Cr217   2.013   1_556  S
O208        C216   1.267       .  A
O209       Cr217   1.976       .  S
O209        C210   1.260       .  A
C210        O211   1.268       .  A
C210       C2081   1.489       .  S
O211       Cr218   2.021       .  S
O212       Cr218   1.991       .  S
O212        C213   1.262       .  A
C213        O214   1.264       .  A
C213       C1927   1.466   1_554  S
O214       Cr219   1.996       .  S
O215       Cr219   1.959   1_556  S
O215        C216   1.259       .  A
C216       C1971   1.475       .  S
Cr217       O220   1.769       .  S
Cr218       O220   1.774       .  S
Cr219       O220   1.767       .  S
O221       Cr239   1.978       .  S
O221        C229   1.258       .  A
O222       Cr239   1.992       .  S
O222        C223   1.262       .  A
C223        O224   1.263       .  A
C223       C1871   1.484       .  S
O224       Cr240   2.006       .  S
O225       Cr240   2.025       .  S
O225        C226   1.270       .  A
C226        O227   1.261       .  A
C226       C1839   1.477       .  S
O227       Cr241   1.968       .  S
O228       Cr241   2.003       .  S
O228        C229   1.264       .  A
C229       C2037   1.461       .  S
O230       Cr239   2.012       .  S
O230        C238   1.267       .  A
O231       Cr239   1.950       .  S
O231        C232   1.259       .  A
C232        O233   1.271       .  A
C232       C2059   1.477       .  S
O233       Cr240   2.022       .  S
O234       Cr240   1.990       .  S
O234        C235   1.261       .  A
C235        O236   1.263       .  A
C235       C1849   1.475       .  S
O236       Cr241   1.991       .  S
O237       Cr241   1.991       .  S
O237        C238   1.262       .  A
C238       C2125   1.488       .  S
Cr239       O242   1.760       .  S
Cr240       O242   1.776       .  S
Cr241       O242   1.764       .  S
O243       Cr261   1.968       .  S
O243        C251   1.258       .  A
O244       Cr261   2.006       .  S
O244        C245   1.267       .  A
C245        O246   1.261       .  A
C245       C1883   1.490       .  S
O246       Cr262   1.996       .  S
O247       Cr262   2.027       .  S
O247        C248   1.272       .  A
C248        O249   1.260       .  A
C248       C1761   1.479       .  S
O249       Cr263   1.972       .  S
O250       Cr263   1.995       .  S
O250        C251   1.264       .  A
C251       C1981   1.456       .  S
O252       Cr261   2.018       .  S
O252        C260   1.267       .  A
O253       Cr261   1.952       .  S
O253        C254   1.259       .  A
C254        O255   1.272       .  A
C254       C1959   1.480       .  S
O255       Cr262   2.028       .  S
O256       Cr262   1.990       .  S
O256        C257   1.260       .  A
C257        O258   1.262       .  A
C257       C1795   1.474       .  S
O258       Cr263   1.992       .  S
O259       Cr263   1.990       .  S
O259        C260   1.262       .  A
C260       C1817   1.484       .  S
Cr261       O264   1.766       .  S
Cr262       O264   1.772       .  S
Cr263       O264   1.763       .  S
O265       Cr283   1.986       .  S
O265        C273   1.260   1_455  A
O266       Cr283   2.021       .  S
O266        C267   1.269       .  A
C267        O268   1.258       .  A
C267       C1651   1.481       .  S
O268       Cr284   1.955       .  S
O269       Cr284   2.016       .  S
O269        C270   1.270       .  A
C270        O271   1.261       .  A
C270       C1717   1.477       .  S
O271       Cr285   1.970       .  S
O272       Cr285   2.013       .  S
O272        C273   1.263   1_455  A
C273       C2565   1.489       .  S
O274       Cr283   2.027       .  S
O274        C282   1.271       .  A
O275       Cr283   1.979       .  S
O275        C276   1.261       .  A
C276        O277   1.265       .  A
C276       C1695   1.488       .  S
O277       Cr284   2.018       .  S
O278       Cr284   1.990       .  S
O278        C279   1.260       .  A
C279        O280   1.265       .  A
C279       C1739   1.467       .  S
O280       Cr285   2.004       .  S
O281       Cr285   1.955       .  S
O281        C282   1.260       .  A
C282       C1673   1.477       .  S
Cr283       O286   1.770       .  S
Cr284       O286   1.775       .  S
Cr285       O286   1.767       .  S
O287       Cr305   2.017   1_655  S
O287        C295   1.266   1_655  A
O288       Cr305   1.960       .  S
O288        C289   1.262       .  A
C289        O290   1.273       .  A
C289       C1619   1.486       .  S
O290       Cr306   2.030       .  S
O291       Cr306   1.989       .  S
O291        C292   1.261       .  A
C292        O293   1.264       .  A
C292       C1805   1.485       .  S
O293       Cr307   2.001       .  S
O294       Cr307   1.982       .  S
O294        C295   1.260       .  A
C295       C1585   1.479   1_455  S
O296       Cr305   1.989       .  S
O296        C304   1.262       .  A
O297       Cr305   1.996       .  S
O297        C298   1.262       .  A
C298        O299   1.261       .  A
C298       C1707   1.484       .  S
O299       Cr306   2.003       .  S
O300       Cr306   2.023       .  S
O300        C301   1.270       .  A
C301        O302   1.260       .  A
C301       C1915   1.476       .  S
O302       Cr307   1.962       .  S
O303       Cr307   2.008       .  S
O303        C304   1.266       .  A
C304       C1641   1.475       .  S
Cr305       O308   1.764       .  S
Cr306       O308   1.775       .  S
Cr307       O308   1.762       .  S
O309       Cr327   1.984       .  S
O309        C317   1.259       .  A
O310       Cr327   1.994       .  S
O310        C311   1.264       .  A
C311        O312   1.261       .  A
C311       C1553   1.476       .  S
O312       Cr328   1.989       .  S
O313       Cr328   2.009       .  S
O313        C314   1.267       .  A
C314        O315   1.261       .  A
C314       C2543   1.475       .  S
O315       Cr329   1.976       .  S
O316       Cr329   2.007       .  S
O316        C317   1.266       .  A
C317       C1663   1.466   1_655  S
O318       Cr327   2.015   1_455  S
O318        C326   1.267       .  A
O319       Cr327   1.967       .  S
O319        C320   1.262       .  A
C320        O321   1.268       .  A
C320       C1685   1.480       .  S
O321       Cr328   2.017       .  S
O322       Cr328   1.985       .  S
O322        C323   1.262       .  A
C323        O324   1.264       .  A
C323       C2795   1.470       .  S
O324       Cr329   2.003       .  S
O325       Cr329   1.987       .  S
O325        C326   1.262   1_655  A
C326       C1563   1.483       .  S
Cr327       O330   1.762       .  S
Cr328       O330   1.770       .  S
Cr329       O330   1.764       .  S
O331       Cr349   2.020       .  S
O331        C339   1.268       .  A
O332       Cr349   1.957       .  S
O332        C333   1.255       .  A
C333        O334   1.267       .  A
C333       C1541   1.484       .  S
O334       Cr350   2.027       .  S
O335       Cr350   1.993       .  S
O335        C336   1.264       .  A
C336        O337   1.267       .  A
C336       C1519   1.470       .  S
O337       Cr351   2.005       .  S
O338       Cr351   1.963       .  S
O338        C339   1.260       .  A
C339       C1607   1.482       .  S
O340       Cr349   1.967   1_455  S
O340        C348   1.256       .  A
O341       Cr349   2.019       .  S
O341        C342   1.269       .  A
C342        O343   1.261       .  A
C342       C1629   1.482       .  S
O343       Cr350   1.967       .  S
O344       Cr350   2.018       .  S
O344        C345   1.269       .  A
C345        O346   1.260       .  A
C345       C1497   1.480       .  S
O346       Cr351   1.976       .  S
O347       Cr351   2.010       .  S
O347        C348   1.265   1_655  A
C348       C1949   1.476       .  S
Cr349       O352   1.771       .  S
Cr350       O352   1.776       .  S
Cr351       O352   1.763       .  S
O353       Cr371   1.976       .  S
O353        C361   1.257       .  A
O354       Cr371   2.007       .  S
O354        C355   1.267       .  A
C355        O356   1.261       .  A
C355       C1431   1.481       .  S
O356       Cr372   1.975       .  S
O357       Cr372   2.017       .  S
O357        C358   1.269       .  A
C358        O359   1.262       .  A
C358       C2421   1.478       .  S
O359       Cr373   1.976       .  S
O360       Cr373   2.017       .  S
O360        C361   1.265       .  A
C361       C1409   1.483       .  S
O362       Cr371   2.021       .  S
O362        C370   1.269       .  A
O363       Cr371   1.972       .  S
O363        C364   1.260       .  A
C364        O365   1.268       .  A
C364       C1475   1.485       .  S
O365       Cr372   2.022       .  S
O366       Cr372   1.984       .  S
O366        C367   1.261       .  A
C367        O368   1.265       .  A
C367       C2631   1.464       .  S
O368       Cr373   2.004       .  S
O369       Cr373   1.963       .  S
O369        C370   1.259       .  A
C370       C1453   1.477       .  S
Cr371       O374   1.769       .  S
Cr372       O374   1.775       .  S
Cr373       O374   1.768       .  S
O375       Cr393   1.955       .  S
O375        C383   1.252       .  A
O376       Cr393   2.010       .  S
O376        C377   1.267       .  A
C377        O378   1.259       .  A
C377       C1387   1.478       .  S
O378       Cr394   1.970       .  S
O379       Cr394   2.027       .  S
O379        C380   1.272       .  A
C380        O381   1.263       .  A
C380       C1321   1.491       .  S
O381       Cr395   1.981       .  S
O382       Cr395   2.022       .  S
O382        C383   1.264       .  A
C383       C1861   1.470       .  S
O384       Cr393   2.027       .  S
O384        C392   1.271       .  A
O385       Cr393   1.966       .  S
O385        C386   1.258       .  A
C386        O387   1.269       .  A
C386       C1487   1.483       .  S
O387       Cr394   2.027       .  S
O388       Cr394   1.984       .  S
O388        C389   1.260       .  A
C389        O390   1.264       .  A
C389       C1343   1.463       .  S
O390       Cr395   2.001       .  S
O391       Cr395   1.970       .  S
O391        C392   1.259       .  A
C392       C1365   1.481       .  S
Cr393       O396   1.769       .  S
Cr394       O396   1.773       .  S
Cr395       O396   1.770       .  S
O397       Cr415   2.023       .  S
O397        C405   1.269       .  A
O398       Cr415   1.964       .  S
O398        C399   1.256       .  A
C399        O400   1.266       .  A
C399       C1311   1.481       .  S
O400       Cr416   2.020       .  S
O401       Cr416   1.983       .  S
O401        C402   1.260       .  A
C402        O403   1.266       .  A
C402       C1277   1.462       .  S
O403       Cr417   2.002       .  S
O404       Cr417   1.969       .  S
O404        C405   1.258       .  A
C405       C1443   1.477       .  S
O406       Cr415   1.960       .  S
O406        C414   1.255       .  A
O407       Cr415   2.010       .  S
O407        C408   1.269       .  A
C408        O409   1.260       .  A
C408       C1465   1.473       .  S
O409       Cr416   1.966       .  S
O410       Cr416   2.025       .  S
O410        C411   1.270       .  A
C411        O412   1.262       .  A
C411       C1255   1.486       .  S
O412       Cr417   1.977       .  S
O413       Cr417   2.028       .  S
O413        C414   1.267       .  A
C414       C2653   1.484       .  S
Cr415       O418   1.771       .  S
Cr416       O418   1.779       .  S
Cr417       O418   1.769       .  S
O419       Cr437   2.022       .  S
O419        C427   1.271       .  A
O420       Cr437   1.962       .  S
O420        C421   1.255       .  A
C421        O422   1.264       .  A
C421       C1299   1.472       .  S
O422       Cr438   2.014       .  S
O423       Cr438   1.992       .  S
O423        C424   1.263       .  A
C424        O425   1.266       .  A
C424       C1827   1.467       .  S
O425       Cr439   2.001       .  S
O426       Cr439   1.963       .  S
O426        C427   1.258       .  A
C427       C1399   1.479       .  S
O428       Cr437   1.960       .  S
O428        C436   1.253       .  A
O429       Cr437   2.017       .  S
O429        C430   1.271       .  A
C430        O431   1.262       .  A
C430       C1377   1.484       .  S
O431       Cr438   1.971       .  S
O432       Cr438   2.013       .  S
O432        C433   1.268       .  A
C433        O434   1.260       .  A
C433       C2015   1.475       .  S
O434       Cr439   1.971       .  S
O435       Cr439   2.015       .  S
O435        C436   1.265       .  A
C436       C1233   1.477       .  S
Cr437       O440   1.770       .  S
Cr438       O440   1.777       .  S
Cr439       O440   1.766       .  S
O441       Cr459   1.969       .  S
O441        C449   1.258       .  A
O442       Cr459   2.022       .  S
O442        C443   1.271       .  A
C443        O444   1.260       .  A
C443       C1135   1.477       .  S
O444       Cr460   1.954       .  S
O445       Cr460   2.016       .  S
O445        C446   1.267       .  A
C446        O447   1.258       .  A
C446       C1211   1.481       .  S
O447       Cr461   1.973       .  S
O448       Cr461   2.009       .  S
O448        C449   1.265       .  A
C449       C1509   1.480       .  S
O450       Cr459   2.017       .  S
O450        C458   1.267   1_554  A
O451       Cr459   1.978       .  S
O451        C452   1.256       .  A
C452        O453   1.264       .  A
C452       C1167   1.475       .  S
O453       Cr460   2.020       .  S
O454       Cr460   1.979       .  S
O454        C455   1.262       .  A
C455        O456   1.267       .  A
C455       C1201   1.458   1_554  S
O456       Cr461   2.003       .  S
O457       Cr461   1.959   1_556  S
O457        C458   1.258       .  A
C458       C1145   1.481       .  S
Cr459       O462   1.769       .  S
Cr460       O462   1.774       .  S
Cr461       O462   1.764       .  S
O463       Cr481   1.983       .  S
O463        C471   1.260       .  A
O464       Cr481   2.023       .  S
O464        C465   1.271       .  A
C465        O466   1.260       .  A
C465       C1101   1.473       .  S
O466       Cr482   1.956       .  S
O467       Cr482   2.025       .  S
O467        C468   1.268       .  A
C468        O469   1.259       .  A
C468       C1245   1.482       .  S
O469       Cr483   1.971   1_556  S
O470       Cr483   2.012   1_556  S
O470        C471   1.266       .  A
C471       C2235   1.489       .  S
O472       Cr481   2.017   1_554  S
O472        C480   1.268       .  A
O473       Cr481   1.984   1_554  S
O473        C474   1.257   1_554  A
C474        O475   1.266       .  A
C474       C1179   1.482   1_556  S
O475       Cr482   2.020       .  S
O476       Cr482   1.987   1_554  S
O476        C477   1.263       .  A
C477        O478   1.267       .  A
C477       C1355   1.465       .  S
O478       Cr483   2.007       .  S
O479       Cr483   1.958       .  S
O479        C480   1.259       .  A
C480       C1079   1.478       .  S
Cr481       O484   1.776       .  S
Cr482       O484   1.775       .  S
Cr483       O484   1.763   1_554  S
O485       Cr503   1.983       .  S
O485        C493   1.260       .  A
O486       Cr503   1.989       .  S
O486        C487   1.261       .  A
C487        O488   1.263       .  A
C487       C1035   1.491       .  S
O488       Cr504   2.011       .  S
O489       Cr504   2.024       .  S
O489        C490   1.271       .  A
C490        O491   1.261       .  A
C490       C1531   1.477       .  S
O491       Cr505   1.967       .  S
O492       Cr505   2.001       .  S
O492        C493   1.265       .  A
C493       C1123   1.465       .  S
O494       Cr503   2.009       .  S
O494        C502   1.265       .  A
O495       Cr503   1.949       .  S
O495        C496   1.259       .  A
C496        O497   1.274       .  A
C496       C1157   1.482       .  S
O497       Cr504   2.036       .  S
O498       Cr504   1.993       .  S
O498        C499   1.263       .  A
C499        O500   1.263       .  A
C499       C1597   1.483       .  S
O500       Cr505   1.995       .  S
O501       Cr505   1.984       .  S
O501        C502   1.261       .  A
C502       C1057   1.483       .  S
Cr503       O506   1.764       .  S
Cr504       O506   1.778       .  S
Cr505       O506   1.763       .  S
O507       Cr525   1.982       .  S
O507        C515   1.259       .  A
O508       Cr525   1.997       .  S
O508        C509   1.264       .  A
C509        O510   1.263       .  A
C509       C1047   1.495       .  S
O510       Cr526   2.005       .  S
O511       Cr526   2.028       .  S
O511        C512   1.272       .  A
C512        O513   1.262       .  A
C512       C2245   1.478       .  S
O513       Cr527   1.970       .  S
O514       Cr527   2.005       .  S
O514        C515   1.264       .  A
C515       C1113   1.475       .  S
O516       Cr525   2.015       .  S
O516        C524   1.269       .  A
O517       Cr525   1.954       .  S
O517        C518   1.259       .  A
C518        O519   1.272       .  A
C518       C1091   1.482       .  S
O519       Cr526   2.027       .  S
O520       Cr526   2.002       .  S
O520        C521   1.263       .  A
C521        O522   1.262       .  A
C521       C2103   1.484       .  S
O522       Cr527   1.998       .  S
O523       Cr527   1.991       .  S
O523        C524   1.264       .  A
C524       C1333   1.490       .  S
Cr525       O528   1.765       .  S
Cr526       O528   1.778       .  S
Cr527       O528   1.767       .  S
O529       Cr547   2.005       .  S
O529        C537   1.264       .  A
O530       Cr547   1.948       .  S
O530        C531   1.259       .  A
C531        O532   1.272       .  A
C531        C969   1.470       .  S
O532       Cr548   2.019       .  S
O533       Cr548   1.991       .  S
O533        C534   1.262       .  A
C534        O535   1.261       .  A
C534       C2333   1.471       .  S
O535       Cr549   1.991       .  S
O536       Cr549   1.991       .  S
O536        C537   1.262       .  A
C537       C1267   1.486       .  S
O538       Cr547   1.976       .  S
O538        C546   1.260       .  A
O539       Cr547   1.986       .  S
O539        C540   1.260       .  A
C540        O541   1.262       .  A
C540       C1013   1.488       .  S
O541       Cr548   2.004       .  S
O542       Cr548   2.016       .  S
O542        C543   1.268       .  A
C543        O544   1.261       .  A
C543       C2179   1.475       .  S
O544       Cr549   1.976       .  S
O545       Cr549   1.996       .  S
O545        C546   1.265       .  A
C546        C991   1.470       .  S
Cr547       O550   1.773       .  S
Cr548       O550   1.780       .  S
Cr549       O550   1.766       .  S
O551       Cr569   2.012       .  S
O551        C559   1.265       .  A
O552       Cr569   1.957       .  S
O552        C553   1.260       .  A
C553        O554   1.269       .  A
C553        C947   1.466       .  S
O554       Cr570   2.009       .  S
O555       Cr570   1.995       .  S
O555        C556   1.263       .  A
C556        O557   1.263       .  A
C556       C1575   1.483       .  S
O557       Cr571   1.996       .  S
O558       Cr571   1.972       .  S
O558        C559   1.260       .  A
C559        C903   1.471       .  S
O560       Cr569   1.974       .  S
O560        C568   1.258       .  A
O561       Cr569   1.987       .  S
O561        C562   1.262       .  A
C562        O563   1.261       .  A
C562       C1025   1.476       .  S
O563       Cr570   1.994       .  S
O564       Cr570   2.015       .  S
O564        C565   1.268       .  A
C565        O566   1.260       .  A
C565       C1751   1.473       .  S
O566       Cr571   1.968       .  S
O567       Cr571   1.998       .  S
O567        C568   1.264       .  A
C568        C925   1.470       .  S
Cr569       O572   1.774       .  S
Cr570       O572   1.778       .  S
Cr571       O572   1.761       .  S
O573       Cr591   1.965   1_556  S
O573        C581   1.256       .  A
O574       Cr591   2.000       .  S
O574        C575   1.265       .  A
C575        O576   1.262       .  A
C575        C881   1.478       .  S
O576       Cr592   1.993       .  S
O577       Cr592   2.017       .  S
O577        C578   1.268   1_554  A
C578        O579   1.261       .  A
C578       C1289   1.473       .  S
O579       Cr593   1.970   1_556  S
O580       Cr593   2.002   1_556  S
O580        C581   1.264       .  A
C581        C981   1.453       .  S
O582       Cr591   2.015       .  S
O582        C590   1.265       .  A
O583       Cr591   1.957       .  S
O583        C584   1.258       .  A
C584        O585   1.267       .  A
C584       C1003   1.465       .  S
O585       Cr592   2.014       .  S
O586       Cr592   1.999       .  S
O586        C587   1.264       .  A
C587        O588   1.263       .  A
C587       C1421   1.477       .  S
O588       Cr593   1.994       .  S
O589       Cr593   1.987       .  S
O589        C590   1.261       .  A
C590       C2169   1.480       .  S
Cr591       O594   1.766       .  S
Cr592       O594   1.775       .  S
Cr593       O594   1.760       .  S
O595       Cr613   1.971   1_554  S
O595        C603   1.260       .  A
O596       Cr613   1.992       .  S
O596        C597   1.263       .  A
C597        O598   1.263       .  A
C597        C893   1.485       .  S
O598       Cr614   2.002       .  S
O599       Cr614   2.012       .  S
O599        C600   1.268   1_556  A
C600        O601   1.260       .  A
C600        C837   1.473       .  S
O601       Cr615   1.972       .  S
O602       Cr615   2.008       .  S
O602        C603   1.266       .  A
C603        C959   1.456       .  S
O604       Cr613   1.998       .  S
O604        C612   1.263       .  A
O605       Cr613   1.958       .  S
O605        C606   1.260       .  A
C606        O607   1.268       .  A
C606        C937   1.464       .  S
O607       Cr614   2.017       .  S
O608       Cr614   1.990       .  S
O608        C609   1.262       .  A
C609        O610   1.265       .  A
C609        C859   1.477       .  S
O610       Cr615   2.001   1_556  S
O611       Cr615   1.984   1_556  S
O611        C612   1.260       .  A
C612       C1729   1.478       .  S
Cr613       O616   1.759       .  S
Cr614       O616   1.770       .  S
Cr615       O616   1.763   1_554  S
O617       Cr635   1.977   1_455  S
O617        C625   1.256       .  A
O618       Cr635   2.004       .  S
O618        C619   1.267       .  A
C619        O620   1.260       .  A
C619        C783   1.473       .  S
O620       Cr636   1.963       .  S
O621       Cr636   2.023       .  S
O621        C622   1.274       .  A
C622        O623   1.262       .  A
C622       C2521   1.483       .  S
O623       Cr637   1.973       .  S
O624       Cr637   2.009       .  S
O624        C625   1.261   1_655  A
C625        C871   1.476       .  S
O626       Cr635   2.021       .  S
O626        C634   1.271       .  A
O627       Cr635   1.971       .  S
O627        C628   1.259       .  A
C628        O629   1.267       .  A
C628        C815   1.487       .  S
O629       Cr636   2.023       .  S
O630       Cr636   1.989       .  S
O630        C631   1.259       .  A
C631        O632   1.262       .  A
C631       C2763   1.463       .  S
O632       Cr637   1.998       .  S
O633       Cr637   1.947       .  S
O633        C634   1.258       .  A
C634        C793   1.472       .  S
Cr635       O638   1.767       .  S
Cr636       O638   1.769       .  S
Cr637       O638   1.771       .  S
O639       Cr657   1.966   1_455  S
O639        C647   1.255       .  A
O640       Cr657   2.019       .  S
O640        C641   1.268       .  A
C641        O642   1.261       .  A
C641        C761   1.481       .  S
O642       Cr658   1.966       .  S
O643       Cr658   2.025       .  S
O643        C644   1.271       .  A
C644        O645   1.262       .  A
C644       C1069   1.485       .  S
O645       Cr659   1.974       .  S
O646       Cr659   2.012       .  S
O646        C647   1.262   1_655  A
C647       C1783   1.473       .  S
O648       Cr657   2.025       .  S
O648        C656   1.271       .  A
O649       Cr657   1.967       .  S
O649        C650   1.258       .  A
C650        O651   1.268       .  A
C650        C827   1.483       .  S
O651       Cr658   2.025       .  S
O652       Cr658   1.988       .  S
O652        C653   1.262       .  A
C653        O654   1.264       .  A
C653       C1189   1.464       .  S
O654       Cr659   2.000       .  S
O655       Cr659   1.959       .  S
O655        C656   1.260       .  A
C656        C727   1.479       .  S
Cr657       O660   1.768       .  S
Cr658       O660   1.770       .  S
Cr659       O660   1.769       .  S
O661       Cr679   1.964       .  S
O661        C669   1.256       .  A
O662       Cr679   1.996       .  S
O662        C663   1.265       .  A
C663        O664   1.260       .  A
C663        C705   1.480       .  S
O664       Cr680   1.986       .  S
O665       Cr680   2.007       .  S
O665        C666   1.265       .  A
C666        O667   1.258       .  A
C666        C849   1.468       .  S
O667       Cr681   1.973       .  S
O668       Cr681   2.007       .  S
O668        C669   1.266       .  A
C669        C771   1.453       .  S
O670       Cr679   2.011   1_655  S
O670        C678   1.266       .  A
O671       Cr679   1.954       .  S
O671        C672   1.259       .  A
C672        O673   1.269       .  A
C672        C805   1.472       .  S
O673       Cr680   2.015       .  S
O674       Cr680   1.975       .  S
O674        C675   1.261       .  A
C675        O676   1.267       .  A
C675        C915   1.474       .  S
O676       Cr681   2.001       .  S
O677       Cr681   1.983       .  S
O677        C678   1.259   1_455  A
C678       C2773   1.484       .  S
Cr679       O682   1.762       .  S
Cr680       O682   1.775       .  S
Cr681       O682   1.760       .  S
O683       Cr701   1.994       .  S
O683        C691   1.262       .  A
O684       Cr701   1.979       .  S
O684        C685   1.261       .  A
C685        O686   1.263       .  A
C685        C717   1.475       .  S
O686       Cr702   2.002       .  S
O687       Cr702   2.021       .  S
O687        C688   1.269       .  A
C688        O689   1.262       .  A
C688       C1773   1.476       .  S
O689       Cr703   1.977       .  S
O690       Cr703   2.004       .  S
O690        C691   1.267       .  A
C691        C749   1.477       .  S
O692       Cr701   1.999       .  S
O692        C700   1.264       .  A
O693       Cr701   1.964       .  S
O693        C694   1.261       .  A
C694        O695   1.270       .  A
C694        C739   1.481       .  S
O695       Cr702   2.020       .  S
O696       Cr702   1.993       .  S
O696        C697   1.262       .  A
C697        O698   1.264       .  A
C697       C1905   1.474       .  S
O698       Cr703   1.996       .  S
O699       Cr703   1.985       .  S
O699        C700   1.262       .  A
C700       C1223   1.480   1_455  S
Cr701       O704   1.763       .  S
Cr702       O704   1.775       .  S
Cr703       O704   1.758       .  S
C705        C706   1.403       .  A
C705        C710   1.398       .  A
C706        C707   1.404       .  A
C706        H719   1.083       .  S
C707        C708   1.417       .  A
C707        H720   1.078       .  S
C708        C714   1.432       .  A
C708        C709   1.423       .  A
C709        C711   1.396       .  A
C709        C710   1.394       .  A
C710        H721   1.085       .  S
C711        C712   1.380       .  A
C711        H722   1.084       .  S
C712        C713   1.396   1_545  A
C712        H723   1.084   1_545  S
C713        C714   1.421   1_565  A
C713        C718   1.392       .  A
C714        C715   1.420       .  A
C715        C716   1.407   1_545  A
C715        H724   1.078       .  S
C716        C717   1.400       .  A
C716        H725   1.083       .  S
C717        C718   1.398       .  A
C718        H726   1.086       .  S
C727        C728   1.401   1_655  A
C727        C732   1.401       .  A
C728        C729   1.400       .  A
C728        H741   1.083       .  S
C729        C730   1.416       .  A
C729        H742   1.077       .  S
C730        C736   1.431       .  A
C730        C731   1.422   1_455  A
C731        C733   1.398       .  A
C731        C732   1.399       .  A
C732        H743   1.085       .  S
C733        C734   1.385   1_556  A
C733        H744   1.084       .  S
C734        C735   1.398   1_655  A
C734        H745   1.084       .  S
C735        C736   1.422   1_554  A
C735        C740   1.399       .  A
C736        C737   1.417   1_556  A
C737        C738   1.401       .  A
C737        H746   1.077   1_554  S
C738        C739   1.402       .  A
C738        H747   1.083       .  S
C739        C740   1.401       .  A
C740        H748   1.085   1_455  S
C749        C750   1.401       .  A
C749        C754   1.397   1_455  A
C750        C751   1.406       .  A
C750        H763   1.083       .  S
C751        C752   1.419   1_455  A
C751        H764   1.078       .  S
C752        C758   1.434       .  A
C752        C753   1.422       .  A
C753        C755   1.397       .  A
C753        C754   1.398       .  A
C754        H765   1.086       .  S
C755        C756   1.384       .  A
C755        H766   1.084       .  S
C756        C757   1.397       .  A
C756        H767   1.084       .  S
C757        C758   1.423       .  A
C757        C762   1.398       .  A
C758        C759   1.418       .  A
C759        C760   1.405       .  A
C759        H768   1.078   1_655  S
C760        C761   1.402       .  A
C760        H769   1.083       .  S
C761        C762   1.399       .  A
C762        H770   1.085       .  S
C771        C772   1.394   1_455  A
C771        C776   1.393       .  A
C772        C773   1.394       .  A
C772        H785   1.084       .  S
C773        C774   1.416       .  A
C773        H786   1.077       .  S
C774        C780   1.425       .  A
C774        C775   1.423   1_655  A
C775        C777   1.398       .  A
C775        C776   1.400       .  A
C776        H787   1.085       .  S
C777        C778   1.387       .  A
C777        H788   1.084       .  S
C778        C779   1.399   1_454  A
C778        H789   1.084   1_554  S
C779        C780   1.422   1_556  A
C779        C784   1.401       .  A
C780        C781   1.414       .  A
C781        C782   1.393   1_554  A
C781        H790   1.077       .  S
C782        C783   1.400       .  A
C782        H791   1.083       .  S
C783        C784   1.400       .  A
C784        H792   1.085   1_655  S
C793        C794   1.399   1_655  A
C793        C798   1.400       .  A
C794        C795   1.398       .  A
C794        H807   1.083       .  S
C795        C796   1.417       .  A
C795        H808   1.076       .  S
C796        C802   1.426       .  A
C796        C797   1.421   1_455  A
C797        C799   1.398       .  A
C797        C798   1.394       .  A
C798        H809   1.085       .  S
C799        C800   1.384       .  A
C799        H810   1.084       .  S
C800        C801   1.397       .  A
C800        H811   1.084       .  S
C801        C802   1.422   1_655  A
C801        C806   1.396   1_655  A
C802        C803   1.415       .  A
C803        C804   1.396       .  A
C803        H812   1.077       .  S
C804        C805   1.399       .  A
C804        H813   1.083       .  S
C805        C806   1.399       .  A
C806        H814   1.085   1_455  S
C815        C816   1.403       .  A
C815        C820   1.400       .  A
C816        C817   1.407       .  A
C816        H829   1.083       .  S
C817        C818   1.419       .  A
C817        H830   1.078       .  S
C818        C824   1.437       .  A
C818        C819   1.423       .  A
C819        C821   1.398       .  A
C819        C820   1.402       .  A
C820        H831   1.085       .  S
C821        C822   1.385       .  A
C821        H832   1.084   1_655  S
C822        C823   1.398   1_545  A
C822        H833   1.084   1_655  S
C823        C824   1.423   1_565  A
C823        C828   1.401       .  A
C824        C825   1.419   1_545  A
C825        C826   1.407       .  A
C825        H834   1.078   1_565  S
C826        C827   1.402       .  A
C826        H835   1.083       .  S
C827        C828   1.400       .  A
C828        H836   1.085       .  S
C837        C838   1.400       .  A
C837        C842   1.401       .  A
C838        C839   1.394       .  A
C838        H851   1.084       .  S
C839        C840   1.413       .  A
C839        H852   1.078       .  S
C840        C846   1.426       .  A
C840        C841   1.422       .  A
C841        C843   1.399       .  A
C841        C842   1.404       .  A
C842        H853   1.085       .  S
C843        C844   1.390       .  A
C843        H854   1.084       .  S
C844        C845   1.400       .  A
C844        H855   1.084       .  S
C845        C846   1.422       .  A
C845        C850   1.402       .  A
C846        C847   1.416       .  A
C847        C848   1.395       .  A
C847        H856   1.078       .  S
C848        C849   1.397       .  A
C848        H857   1.084       .  S
C849        C850   1.400       .  A
C850        H858   1.085       .  S
C859        C860   1.400       .  A
C859        C864   1.399       .  A
C860        C861   1.402       .  A
C860        H873   1.083       .  S
C861        C862   1.418       .  A
C861        H874   1.078       .  S
C862        C868   1.431       .  A
C862        C863   1.422       .  A
C863        C865   1.398       .  A
C863        C864   1.400       .  A
C864        H875   1.085       .  S
C865        C866   1.386       .  A
C865        H876   1.084       .  S
C866        C867   1.398       .  A
C866        H877   1.084       .  S
C867        C868   1.424       .  A
C867        C872   1.402       .  A
C868        C869   1.415       .  A
C869        C870   1.400       .  A
C869        H878   1.078       .  S
C870        C871   1.401       .  A
C870        H879   1.083       .  S
C871        C872   1.398       .  A
C872        H880   1.085       .  S
C881        C882   1.399       .  A
C881        C886   1.403       .  A
C882        C883   1.392   1_554  A
C882        H895   1.084       .  S
C883        C884   1.414   1_556  A
C883        H896   1.078       .  S
C884        C890   1.429   1_554  A
C884        C885   1.422       .  A
C885        C887   1.402       .  A
C885        C886   1.413       .  A
C886        H897   1.084       .  S
C887        C888   1.396       .  A
C887        H898   1.084       .  S
C888        C889   1.401       .  A
C888        H899   1.084       .  S
C889        C890   1.423   1_554  A
C889        C894   1.414   1_554  A
C890        C891   1.410       .  A
C891        C892   1.390       .  A
C891        H900   1.078       .  S
C892        C893   1.403       .  A
C892        H901   1.083       .  S
C893        C894   1.405       .  A
C894        H902   1.084   1_556  S
C903        C904   1.396       .  A
C903        C908   1.402       .  A
C904        C905   1.392       .  A
C904        H917   1.084       .  S
C905        C906   1.415       .  A
C905        H918   1.075       .  S
C906        C912   1.426       .  A
C906        C907   1.422       .  A
C907        C909   1.400       .  A
C907        C908   1.406       .  A
C908        H919   1.084       .  S
C909        C910   1.392       .  A
C909        H920   1.084       .  S
C910        C911   1.400       .  A
C910        H921   1.084       .  S
C911        C912   1.423       .  A
C911        C916   1.407       .  A
C912        C913   1.413       .  A
C913        C914   1.390       .  A
C913        H922   1.075       .  S
C914        C915   1.398       .  A
C914        H923   1.084       .  S
C915        C916   1.402       .  A
C916        H924   1.084       .  S
C925        C926   1.400       .  A
C925        C930   1.397       .  A
C926        C927   1.399       .  A
C926        H939   1.083       .  S
C927        C928   1.416       .  A
C927        H940   1.078       .  S
C928        C934   1.426       .  A
C928        C929   1.422       .  A
C929        C931   1.397       .  A
C929        C930   1.396       .  A
C930        H941   1.085       .  S
C931        C932   1.384       .  A
C931        H942   1.084       .  S
C932        C933   1.397       .  A
C932        H943   1.084       .  S
C933        C934   1.422       .  A
C933        C938   1.395       .  A
C934        C935   1.417       .  A
C935        C936   1.399       .  A
C935        H944   1.078       .  S
C936        C937   1.398       .  A
C936        H945   1.083       .  S
C937        C938   1.396       .  A
C938        H946   1.086       .  S
C947        C948   1.398       .  A
C947        C952   1.398       .  A
C948        C949   1.391       .  A
C948        H961   1.084       .  S
C949        C950   1.414       .  A
C949        H962   1.077       .  S
C950        C956   1.424       .  A
C950        C951   1.423       .  A
C951        C953   1.399       .  A
C951        C952   1.402       .  A
C952        H963   1.085       .  S
C953        C954   1.389       .  A
C953        H964   1.084       .  S
C954        C955   1.399       .  A
C954        H965   1.084       .  S
C955        C956   1.422       .  A
C955        C960   1.402       .  A
C956        C957   1.415       .  A
C957        C958   1.392       .  A
C957        H966   1.077       .  S
C958        C959   1.393       .  A
C958        H967   1.084       .  S
C959        C960   1.397       .  A
C960        H968   1.085       .  S
C969        C970   1.397       .  A
C969        C974   1.401       .  A
C970        C971   1.395       .  A
C970        H983   1.084       .  S
C971        C972   1.416       .  A
C971        H984   1.076       .  S
C972        C978   1.425       .  A
C972        C973   1.421       .  A
C973        C975   1.399       .  A
C973        C974   1.398       .  A
C974        H985   1.085       .  S
C975        C976   1.387       .  A
C975        H986   1.084       .  S
C976        C977   1.398       .  A
C976        H987   1.084       .  S
C977        C978   1.424       .  A
C977        C982   1.400       .  A
C978        C979   1.416       .  A
C979        C980   1.393       .  A
C979        H988   1.077       .  S
C980        C981   1.393       .  A
C980        H989   1.084       .  S
C981        C982   1.394       .  A
C982        H990   1.085       .  S
C991        C992   1.399       .  A
C991        C996   1.398       .  A
C992        C993   1.398       .  A
C992       H1005   1.083       .  S
C993        C994   1.416       .  A
C993       H1006   1.078       .  S
C994       C1000   1.426       .  A
C994        C995   1.422       .  A
C995        C997   1.397       .  A
C995        C996   1.396       .  A
C996       H1007   1.085       .  S
C997        C998   1.384       .  A
C997       H1008   1.084       .  S
C998        C999   1.397       .  A
C998       H1009   1.084       .  S
C999       C1000   1.422       .  A
C999       C1004   1.395       .  A
C1000      C1001   1.417       .  A
C1001      C1002   1.398       .  A
C1001      H1010   1.078       .  S
C1002      C1003   1.398       .  A
C1002      H1011   1.083       .  S
C1003      C1004   1.396       .  A
C1004      H1012   1.086       .  S
C1013      C1014   1.402       .  A
C1013      C1018   1.403       .  A
C1014      C1015   1.406       .  A
C1014      H1027   1.083       .  S
C1015      C1016   1.418       .  A
C1015      H1028   1.078       .  S
C1016      C1022   1.434       .  A
C1016      C1017   1.421       .  A
C1017      C1019   1.398       .  A
C1017      C1018   1.398       .  A
C1018      H1029   1.085       .  S
C1019      C1020   1.384       .  A
C1019      H1030   1.084       .  S
C1020      C1021   1.397       .  A
C1020      H1031   1.084       .  S
C1021      C1022   1.423       .  A
C1021      C1026   1.398       .  A
C1022      C1023   1.418       .  A
C1023      C1024   1.405       .  A
C1023      H1032   1.079       .  S
C1024      C1025   1.400       .  A
C1024      H1033   1.083       .  S
C1025      C1026   1.398       .  A
C1026      H1034   1.085       .  S
C1035      C1036   1.404       .  A
C1035      C1040   1.401       .  A
C1036      C1037   1.412       .  A
C1036      H1049   1.083       .  S
C1037      C1038   1.421       .  A
C1037      H1050   1.078       .  S
C1038      C1044   1.440       .  A
C1038      C1039   1.422       .  A
C1039      C1041   1.397       .  A
C1039      C1040   1.399       .  A
C1040      H1051   1.085       .  S
C1041      C1042   1.383       .  A
C1041      H1052   1.084       .  S
C1042      C1043   1.397       .  A
C1042      H1053   1.084       .  S
C1043      C1044   1.423       .  A
C1043      C1048   1.401       .  A
C1044      C1045   1.419       .  A
C1045      C1046   1.411       .  A
C1045      H1054   1.078       .  S
C1046      C1047   1.405       .  A
C1046      H1055   1.083       .  S
C1047      C1048   1.402       .  A
C1048      H1056   1.085       .  S
C1057      C1058   1.401       .  A
C1057      C1062   1.404       .  A
C1058      C1059   1.399       .  A
C1058      H1071   1.083       .  S
C1059      C1060   1.416       .  A
C1059      H1072   1.077       .  S
C1060      C1066   1.431       .  A
C1060      C1061   1.421       .  A
C1061      C1063   1.400       .  A
C1061      C1062   1.404       .  A
C1062      H1073   1.084       .  S
C1063      C1064   1.389       .  A
C1063      H1074   1.084       .  S
C1064      C1065   1.399       .  A
C1064      H1075   1.084       .  S
C1065      C1066   1.423       .  A
C1065      C1070   1.406       .  A
C1066      C1067   1.414       .  A
C1067      C1068   1.397       .  A
C1067      H1076   1.078       .  S
C1068      C1069   1.402       .  A
C1068      H1077   1.083       .  S
C1069      C1070   1.403       .  A
C1070      H1078   1.084       .  S
C1079      C1080   1.400       .  A
C1079      C1084   1.403       .  A
C1080      C1081   1.389       .  A
C1080      H1093   1.083       .  S
C1081      C1082   1.412       .  A
C1081      H1094   1.079       .  S
C1082      C1088   1.426       .  A
C1082      C1083   1.423       .  A
C1083      C1085   1.401       .  A
C1083      C1084   1.409       .  A
C1084      H1095   1.085       .  S
C1085      C1086   1.394       .  A
C1085      H1096   1.084       .  S
C1086      C1087   1.401       .  A
C1086      H1097   1.084       .  S
C1087      C1088   1.422       .  A
C1087      C1092   1.410       .  A
C1088      C1089   1.411       .  A
C1089      C1090   1.389       .  A
C1089      H1098   1.080       .  S
C1090      C1091   1.402       .  A
C1090      H1099   1.083       .  S
C1091      C1092   1.404       .  A
C1092      H1100   1.085       .  S
C1101      C1102   1.398       .  A
C1101      C1106   1.399       .  A
C1102      C1103   1.401       .  A
C1102      H1115   1.083       .  S
C1103      C1104   1.418       .  A
C1103      H1116   1.078       .  S
C1104      C1110   1.430       .  A
C1104      C1105   1.421       .  A
C1105      C1107   1.398       .  A
C1105      C1106   1.397       .  A
C1106      H1117   1.085       .  S
C1107      C1108   1.386       .  A
C1107      H1118   1.084       .  S
C1108      C1109   1.398       .  A
C1108      H1119   1.084       .  S
C1109      C1110   1.423       .  A
C1109      C1114   1.400       .  A
C1110      C1111   1.416       .  A
C1111      C1112   1.399       .  A
C1111      H1120   1.078       .  S
C1112      C1113   1.400       .  A
C1112      H1121   1.083       .  S
C1113      C1114   1.399       .  A
C1114      H1122   1.085       .  S
C1123      C1124   1.397       .  A
C1123      C1128   1.396       .  A
C1124      C1125   1.400       .  A
C1124      H1137   1.084       .  S
C1125      C1126   1.417       .  A
C1125      H1138   1.078       .  S
C1126      C1132   1.428       .  A
C1126      C1127   1.422       .  A
C1127      C1129   1.397       .  A
C1127      C1128   1.397       .  A
C1128      H1139   1.085       .  S
C1129      C1130   1.385       .  A
C1129      H1140   1.084       .  S
C1130      C1131   1.398       .  A
C1130      H1141   1.084       .  S
C1131      C1132   1.421       .  A
C1131      C1136   1.396       .  A
C1132      C1133   1.416       .  A
C1133      C1134   1.400       .  A
C1133      H1142   1.078       .  S
C1134      C1135   1.401       .  A
C1134      H1143   1.083       .  S
C1135      C1136   1.401       .  A
C1136      H1144   1.085       .  S
C1145      C1146   1.401       .  A
C1145      C1150   1.405       .  A
C1146      C1147   1.388       .  A
C1146      H1159   1.083       .  S
C1147      C1148   1.413       .  A
C1147      H1160   1.078       .  S
C1148      C1154   1.427       .  A
C1148      C1149   1.422       .  A
C1149      C1151   1.401       .  A
C1149      C1150   1.410       .  A
C1150      H1161   1.084       .  S
C1151      C1152   1.395       .  A
C1151      H1162   1.084       .  S
C1152      C1153   1.401       .  A
C1152      H1163   1.084       .  S
C1153      C1154   1.424       .  A
C1153      C1158   1.413       .  A
C1154      C1155   1.410       .  A
C1155      C1156   1.386       .  A
C1155      H1164   1.078       .  S
C1156      C1157   1.402       .  A
C1156      H1165   1.084       .  S
C1157      C1158   1.404       .  A
C1158      H1166   1.084       .  S
C1167      C1168   1.398       .  A
C1167      C1172   1.401       .  A
C1168      C1169   1.399   1_554  A
C1168      H1181   1.083   1_554  S
C1169      C1170   1.416   1_556  A
C1169      H1182   1.078       .  S
C1170      C1176   1.432       .  A
C1170      C1171   1.423       .  A
C1171      C1173   1.400       .  A
C1171      C1172   1.408       .  A
C1172      H1183   1.085       .  S
C1173      C1174   1.393       .  A
C1173      H1184   1.084       .  S
C1174      C1175   1.401       .  A
C1174      H1185   1.084       .  S
C1175      C1176   1.423       .  A
C1175      C1180   1.410       .  A
C1176      C1177   1.415   1_554  A
C1177      C1178   1.398       .  A
C1177      H1186   1.078       .  S
C1178      C1179   1.399   1_556  A
C1178      H1187   1.084       .  S
C1179      C1180   1.403       .  A
C1180      H1188   1.084       .  S
C1189      C1190   1.396       .  A
C1189      C1194   1.397       .  A
C1190      C1191   1.400       .  A
C1190      H1203   1.084       .  S
C1191      C1192   1.418       .  A
C1191      H1204   1.077       .  S
C1192      C1198   1.429       .  A
C1192      C1193   1.423       .  A
C1193      C1195   1.398       .  A
C1193      C1194   1.399       .  A
C1194      H1205   1.086       .  S
C1195      C1196   1.386       .  A
C1195      H1206   1.084       .  S
C1196      C1197   1.397       .  A
C1196      H1207   1.084       .  S
C1197      C1198   1.424       .  A
C1197      C1202   1.399       .  A
C1198      C1199   1.417       .  A
C1199      C1200   1.398       .  A
C1199      H1208   1.077       .  S
C1200      C1201   1.396       .  A
C1200      H1209   1.084   1_556  S
C1201      C1202   1.394       .  A
C1202      H1210   1.085       .  S
C1211      C1212   1.402       .  A
C1211      C1216   1.401       .  A
C1212      C1213   1.397       .  A
C1212      H1225   1.083       .  S
C1213      C1214   1.415       .  A
C1213      H1226   1.077       .  S
C1214      C1220   1.430       .  A
C1214      C1215   1.423       .  A
C1215      C1217   1.398       .  A
C1215      C1216   1.403       .  A
C1216      H1227   1.085       .  S
C1217      C1218   1.388       .  A
C1217      H1228   1.084       .  S
C1218      C1219   1.399       .  A
C1218      H1229   1.084       .  S
C1219      C1220   1.421       .  A
C1219      C1224   1.401       .  A
C1220      C1221   1.416       .  A
C1221      C1222   1.398       .  A
C1221      H1230   1.077       .  S
C1222      C1223   1.400       .  A
C1222      H1231   1.083   1_655  S
C1223      C1224   1.402       .  A
C1224      H1232   1.084       .  S
C1233      C1234   1.397       .  A
C1233      C1238   1.404       .  A
C1234      C1235   1.397       .  A
C1234      H1247   1.083       .  S
C1235      C1236   1.417       .  A
C1235      H1248   1.078       .  S
C1236      C1242   1.430       .  A
C1236      C1237   1.421       .  A
C1237      C1239   1.400       .  A
C1237      C1238   1.404       .  A
C1238      H1249   1.085       .  S
C1239      C1240   1.391       .  A
C1239      H1250   1.084       .  S
C1240      C1241   1.400       .  A
C1240      H1251   1.084       .  S
C1241      C1242   1.424       .  A
C1241      C1246   1.408       .  A
C1242      C1243   1.413       .  A
C1243      C1244   1.394       .  A
C1243      H1252   1.078       .  S
C1244      C1245   1.400       .  A
C1244      H1253   1.084       .  S
C1245      C1246   1.404       .  A
C1246      H1254   1.084       .  S
C1255      C1256   1.401       .  A
C1255      C1260   1.404       .  A
C1256      C1257   1.399       .  A
C1256      H1269   1.083       .  S
C1257      C1258   1.415       .  A
C1257      H1270   1.077       .  S
C1258      C1264   1.434       .  A
C1258      C1259   1.423       .  A
C1259      C1261   1.400       .  A
C1259      C1260   1.408       .  A
C1260      H1271   1.084       .  S
C1261      C1262   1.391       .  A
C1261      H1272   1.084       .  S
C1262      C1263   1.400       .  A
C1262      H1273   1.084       .  S
C1263      C1264   1.422       .  A
C1263      C1268   1.406       .  A
C1264      C1265   1.417       .  A
C1265      C1266   1.401       .  A
C1265      H1274   1.076       .  S
C1266      C1267   1.400       .  A
C1266      H1275   1.083       .  S
C1267      C1268   1.404       .  A
C1268      H1276   1.084       .  S
C1277      C1278   1.396       .  A
C1277      C1282   1.395       .  A
C1278      C1279   1.400       .  A
C1278      H1291   1.083       .  S
C1279      C1280   1.419       .  A
C1279      H1292   1.078       .  S
C1280      C1286   1.429       .  A
C1280      C1281   1.423       .  A
C1281      C1283   1.398       .  A
C1281      C1282   1.398       .  A
C1282      H1293   1.086       .  S
C1283      C1284   1.386       .  A
C1283      H1294   1.084       .  S
C1284      C1285   1.398       .  A
C1284      H1295   1.084       .  S
C1285      C1286   1.424       .  A
C1285      C1290   1.401       .  A
C1286      C1287   1.415       .  A
C1287      C1288   1.398       .  A
C1287      H1296   1.078       .  S
C1288      C1289   1.401       .  A
C1288      H1297   1.083   1_556  S
C1289      C1290   1.398       .  A
C1290      H1298   1.085       .  S
C1299      C1300   1.399       .  A
C1299      C1304   1.397       .  A
C1300      C1301   1.403       .  A
C1300      H1313   1.083       .  S
C1301      C1302   1.418   1_565  A
C1301      H1314   1.078   1_565  S
C1302      C1308   1.432       .  A
C1302      C1303   1.423   1_545  A
C1303      C1305   1.397   1_565  A
C1303      C1304   1.399       .  A
C1304      H1315   1.085       .  S
C1305      C1306   1.385       .  A
C1305      H1316   1.084       .  S
C1306      C1307   1.398       .  A
C1306      H1317   1.084       .  S
C1307      C1308   1.422       .  A
C1307      C1312   1.401       .  A
C1308      C1309   1.417       .  A
C1309      C1310   1.403       .  A
C1309      H1318   1.078       .  S
C1310      C1311   1.401       .  A
C1310      H1319   1.083       .  S
C1311      C1312   1.401       .  A
C1312      H1320   1.085       .  S
C1321      C1322   1.404       .  A
C1321      C1326   1.404       .  A
C1322      C1323   1.401       .  A
C1322      H1335   1.083       .  S
C1323      C1324   1.415       .  A
C1323      H1336   1.077       .  S
C1324      C1330   1.436       .  A
C1324      C1325   1.423       .  A
C1325      C1327   1.399       .  A
C1325      C1326   1.408       .  A
C1326      H1337   1.084       .  S
C1327      C1328   1.390       .  A
C1327      H1338   1.084       .  S
C1328      C1329   1.400       .  A
C1328      H1339   1.084       .  S
C1329      C1330   1.422       .  A
C1329      C1334   1.406       .  A
C1330      C1331   1.418       .  A
C1331      C1332   1.403       .  A
C1331      H1340   1.077       .  S
C1332      C1333   1.403       .  A
C1332      H1341   1.083       .  S
C1333      C1334   1.404       .  A
C1334      H1342   1.084       .  S
C1343      C1344   1.396       .  A
C1343      C1348   1.397       .  A
C1344      C1345   1.395       .  A
C1344      H1357   1.084       .  S
C1345      C1346   1.415       .  A
C1345      H1358   1.077       .  S
C1346      C1352   1.429       .  A
C1346      C1347   1.425       .  A
C1347      C1349   1.399       .  A
C1347      C1348   1.405       .  A
C1348      H1359   1.085       .  S
C1349      C1350   1.390       .  A
C1349      H1360   1.084       .  S
C1350      C1351   1.400       .  A
C1350      H1361   1.084       .  S
C1351      C1352   1.421       .  A
C1351      C1356   1.402       .  A
C1352      C1353   1.418       .  A
C1353      C1354   1.399       .  A
C1353      H1362   1.078       .  S
C1354      C1355   1.396       .  A
C1354      H1363   1.084       .  S
C1355      C1356   1.399       .  A
C1356      H1364   1.085       .  S
C1365      C1366   1.402       .  A
C1365      C1370   1.400       .  A
C1366      C1367   1.398       .  A
C1366      H1379   1.084       .  S
C1367      C1368   1.414       .  A
C1367      H1380   1.078       .  S
C1368      C1374   1.433       .  A
C1368      C1369   1.424       .  A
C1369      C1371   1.399       .  A
C1369      C1370   1.408       .  A
C1370      H1381   1.084       .  S
C1371      C1372   1.390       .  A
C1371      H1382   1.084       .  S
C1372      C1373   1.400       .  A
C1372      H1383   1.084       .  S
C1373      C1374   1.421       .  A
C1373      C1378   1.405   1_554  A
C1374      C1375   1.417   1_554  A
C1375      C1376   1.401       .  A
C1375      H1384   1.078   1_556  S
C1376      C1377   1.402       .  A
C1376      H1385   1.083       .  S
C1377      C1378   1.403       .  A
C1378      H1386   1.085       .  S
C1387      C1388   1.401       .  A
C1387      C1392   1.400       .  A
C1388      C1389   1.399       .  A
C1388      H1401   1.083       .  S
C1389      C1390   1.416       .  A
C1389      H1402   1.078       .  S
C1390      C1396   1.431       .  A
C1390      C1391   1.422       .  A
C1391      C1393   1.399       .  A
C1391      C1392   1.404       .  A
C1392      H1403   1.085       .  S
C1393      C1394   1.389       .  A
C1393      H1404   1.084       .  S
C1394      C1395   1.398       .  A
C1394      H1405   1.084       .  S
C1395      C1396   1.424       .  A
C1395      C1400   1.406       .  A
C1396      C1397   1.414       .  A
C1397      C1398   1.397       .  A
C1397      H1406   1.078       .  S
C1398      C1399   1.403       .  A
C1398      H1407   1.083       .  S
C1399      C1400   1.399       .  A
C1400      H1408   1.085       .  S
C1409      C1410   1.402       .  A
C1409      C1414   1.401       .  A
C1410      C1411   1.401       .  A
C1410      H1423   1.083       .  S
C1411      C1412   1.415       .  A
C1411      H1424   1.077       .  S
C1412      C1418   1.433       .  A
C1412      C1413   1.424       .  A
C1413      C1415   1.398       .  A
C1413      C1414   1.404       .  A
C1414      H1425   1.085       .  S
C1415      C1416   1.388       .  A
C1415      H1426   1.084       .  S
C1416      C1417   1.399       .  A
C1416      H1427   1.084       .  S
C1417      C1418   1.421       .  A
C1417      C1422   1.400       .  A
C1418      C1419   1.419       .  A
C1419      C1420   1.404       .  A
C1419      H1428   1.078       .  S
C1420      C1421   1.399       .  A
C1420      H1429   1.083       .  S
C1421      C1422   1.400       .  A
C1422      H1430   1.085       .  S
C1431      C1432   1.401       .  A
C1431      C1436   1.403       .  A
C1432      C1433   1.397       .  A
C1432      H1445   1.083       .  S
C1433      C1434   1.415       .  A
C1433      H1446   1.078       .  S
C1434      C1440   1.430   1_554  A
C1434      C1435   1.421       .  A
C1435      C1437   1.400   1_554  A
C1435      C1436   1.406       .  A
C1436      H1447   1.084       .  S
C1437      C1438   1.392       .  A
C1437      H1448   1.084       .  S
C1438      C1439   1.400       .  A
C1438      H1449   1.084       .  S
C1439      C1440   1.424       .  A
C1439      C1444   1.409       .  A
C1440      C1441   1.414       .  A
C1441      C1442   1.396       .  A
C1441      H1450   1.078       .  S
C1442      C1443   1.401       .  A
C1442      H1451   1.084       .  S
C1443      C1444   1.400       .  A
C1444      H1452   1.085       .  S
C1453      C1454   1.400       .  A
C1453      C1458   1.400       .  A
C1454      C1455   1.400       .  A
C1454      H1467   1.083       .  S
C1455      C1456   1.417       .  A
C1455      H1468   1.077       .  S
C1456      C1462   1.430       .  A
C1456      C1457   1.422       .  A
C1457      C1459   1.398       .  A
C1457      C1458   1.400       .  A
C1458      H1469   1.085       .  S
C1459      C1460   1.386       .  A
C1459      H1470   1.084       .  S
C1460      C1461   1.398       .  A
C1460      H1471   1.084       .  S
C1461      C1462   1.423       .  A
C1461      C1466   1.401       .  A
C1462      C1463   1.416       .  A
C1463      C1464   1.399       .  A
C1463      H1472   1.077       .  S
C1464      C1465   1.400       .  A
C1464      H1473   1.083       .  S
C1465      C1466   1.397       .  A
C1466      H1474   1.085       .  S
C1475      C1476   1.403       .  A
C1475      C1480   1.400       .  A
C1476      C1477   1.407       .  A
C1476      H1489   1.083       .  S
C1477      C1478   1.418       .  A
C1477      H1490   1.078       .  S
C1478      C1484   1.436       .  A
C1478      C1479   1.423       .  A
C1479      C1481   1.398       .  A
C1479      C1480   1.402       .  A
C1480      H1491   1.085       .  S
C1481      C1482   1.386       .  A
C1481      H1492   1.084       .  S
C1482      C1483   1.398   1_545  A
C1482      H1493   1.084       .  S
C1483      C1484   1.423   1_565  A
C1483      C1488   1.402       .  A
C1484      C1485   1.418   1_545  A
C1485      C1486   1.406       .  A
C1485      H1494   1.078   1_565  S
C1486      C1487   1.402       .  A
C1486      H1495   1.083       .  S
C1487      C1488   1.400       .  A
C1488      H1496   1.085       .  S
C1497      C1498   1.401       .  A
C1497      C1502   1.403       .  A
C1498      C1499   1.395       .  A
C1498      H1511   1.083       .  S
C1499      C1500   1.414       .  A
C1499      H1512   1.078       .  S
C1500      C1506   1.429       .  A
C1500      C1501   1.422       .  A
C1501      C1503   1.400       .  A
C1501      C1502   1.407       .  A
C1502      H1513   1.084       .  S
C1503      C1504   1.392       .  A
C1503      H1514   1.084       .  S
C1504      C1505   1.400       .  A
C1504      H1515   1.084       .  S
C1505      C1506   1.423       .  A
C1505      C1510   1.408       .  A
C1506      C1507   1.413       .  A
C1507      C1508   1.394       .  A
C1507      H1516   1.078       .  S
C1508      C1509   1.400       .  A
C1508      H1517   1.083       .  S
C1509      C1510   1.403       .  A
C1510      H1518   1.085       .  S
C1519      C1520   1.398       .  A
C1519      C1524   1.398       .  A
C1520      C1521   1.403       .  A
C1520      H1533   1.083       .  S
C1521      C1522   1.419       .  A
C1521      H1534   1.077       .  S
C1522      C1528   1.432       .  A
C1522      C1523   1.423       .  A
C1523      C1525   1.399       .  A
C1523      C1524   1.401       .  A
C1524      H1535   1.086       .  S
C1525      C1526   1.387       .  A
C1525      H1536   1.084       .  S
C1526      C1527   1.398       .  A
C1526      H1537   1.084       .  S
C1527      C1528   1.423       .  A
C1527      C1532   1.402       .  A
C1528      C1529   1.416       .  A
C1529      C1530   1.401       .  A
C1529      H1538   1.078       .  S
C1530      C1531   1.400       .  A
C1530      H1539   1.083       .  S
C1531      C1532   1.400       .  A
C1532      H1540   1.085       .  S
C1541      C1542   1.402       .  A
C1541      C1546   1.405       .  A
C1542      C1543   1.385       .  A
C1542      H1555   1.083       .  S
C1543      C1544   1.409       .  A
C1543      H1556   1.093       .  S
C1544      C1550   1.426       .  A
C1544      C1545   1.424       .  A
C1545      C1547   1.401       .  A
C1545      C1546   1.412       .  A
C1546      H1557   1.086       .  S
C1547      C1548   1.395       .  A
C1547      H1558   1.084       .  S
C1548      C1549   1.401       .  A
C1548      H1559   1.084       .  S
C1549      C1550   1.423       .  A
C1549      C1554   1.410       .  A
C1550      C1551   1.411       .  A
C1551      C1552   1.386       .  A
C1551      H1560   1.092       .  S
C1552      C1553   1.400       .  A
C1552      H1561   1.083       .  S
C1553      C1554   1.402       .  A
C1554      H1562   1.087       .  S
C1563      C1564   1.401       .  A
C1563      C1568   1.403       .  A
C1564      C1565   1.401       .  A
C1564      H1577   1.083       .  S
C1565      C1566   1.418       .  A
C1565      H1578   1.078       .  S
C1566      C1572   1.434       .  A
C1566      C1567   1.421       .  A
C1567      C1569   1.400       .  A
C1567      C1568   1.406       .  A
C1568      H1579   1.085       .  S
C1569      C1570   1.391       .  A
C1569      H1580   1.084       .  S
C1570      C1571   1.399       .  A
C1570      H1581   1.084       .  S
C1571      C1572   1.425       .  A
C1571      C1576   1.411       .  A
C1572      C1573   1.413       .  A
C1573      C1574   1.397       .  A
C1573      H1582   1.077       .  S
C1574      C1575   1.402       .  A
C1574      H1583   1.084       .  S
C1575      C1576   1.401       .  A
C1576      H1584   1.084       .  S
C1585      C1586   1.400       .  A
C1585      C1590   1.402       .  A
C1586      C1587   1.398       .  A
C1586      H1599   1.083   1_655  S
C1587      C1588   1.416       .  A
C1587      H1600   1.079       .  S
C1588      C1594   1.431       .  A
C1588      C1589   1.422       .  A
C1589      C1591   1.400       .  A
C1589      C1590   1.405       .  A
C1590      H1601   1.085       .  S
C1591      C1592   1.391       .  A
C1591      H1602   1.084       .  S
C1592      C1593   1.399       .  A
C1592      H1603   1.084       .  S
C1593      C1594   1.424       .  A
C1593      C1598   1.409       .  A
C1594      C1595   1.413       .  A
C1595      C1596   1.396       .  A
C1595      H1604   1.078       .  S
C1596      C1597   1.402       .  A
C1596      H1605   1.083       .  S
C1597      C1598   1.401       .  A
C1598      H1606   1.085       .  S
C1607      C1608   1.403   1_655  A
C1607      C1612   1.400       .  A
C1608      C1609   1.404       .  A
C1608      H1621   1.083       .  S
C1609      C1610   1.417       .  A
C1609      H1622   1.078       .  S
C1610      C1616   1.433       .  A
C1610      C1611   1.422   1_455  A
C1611      C1613   1.397       .  A
C1611      C1612   1.398       .  A
C1612      H1623   1.085       .  S
C1613      C1614   1.384       .  A
C1613      H1624   1.084       .  S
C1614      C1615   1.398   1_655  A
C1614      H1625   1.084       .  S
C1615      C1616   1.422       .  A
C1615      C1620   1.398       .  A
C1616      C1617   1.418       .  A
C1617      C1618   1.405       .  A
C1617      H1626   1.078       .  S
C1618      C1619   1.403       .  A
C1618      H1627   1.083       .  S
C1619      C1620   1.402       .  A
C1620      H1628   1.085   1_455  S
C1629      C1630   1.402       .  A
C1629      C1634   1.401       .  A
C1630      C1631   1.403       .  A
C1630      H1643   1.083       .  S
C1631      C1632   1.417   1_554  A
C1631      H1644   1.078   1_655  S
C1632      C1638   1.432       .  A
C1632      C1633   1.422   1_556  A
C1633      C1635   1.398   1_554  A
C1633      C1634   1.400       .  A
C1634      H1645   1.085       .  S
C1635      C1636   1.386       .  A
C1635      H1646   1.084       .  S
C1636      C1637   1.398       .  A
C1636      H1647   1.084       .  S
C1637      C1638   1.423       .  A
C1637      C1642   1.401       .  A
C1638      C1639   1.417   1_655  A
C1639      C1640   1.402       .  A
C1639      H1648   1.077       .  S
C1640      C1641   1.400       .  A
C1640      H1649   1.083       .  S
C1641      C1642   1.398   1_455  A
C1642      H1650   1.085       .  S
C1651      C1652   1.402       .  A
C1651      C1656   1.404       .  A
C1652      C1653   1.389   1_556  A
C1652      H1665   1.083       .  S
C1653      C1654   1.411       .  A
C1653      H1666   1.077       .  S
C1654      C1660   1.427       .  A
C1654      C1655   1.422       .  A
C1655      C1657   1.401   1_455  A
C1655      C1656   1.410   1_554  A
C1656      H1667   1.084       .  S
C1657      C1658   1.394       .  A
C1657      H1668   1.084   1_554  S
C1658      C1659   1.401   1_655  A
C1658      H1669   1.084       .  S
C1659      C1660   1.423       .  A
C1659      C1664   1.409   1_455  A
C1660      C1661   1.415       .  A
C1661      C1662   1.390       .  A
C1661      H1670   1.077       .  S
C1662      C1663   1.394       .  A
C1662      H1671   1.084       .  S
C1663      C1664   1.401   1_455  A
C1664      H1672   1.085       .  S
C1673      C1674   1.401   1_455  A
C1673      C1678   1.398       .  A
C1674      C1675   1.403       .  A
C1674      H1687   1.083       .  S
C1675      C1676   1.418       .  A
C1675      H1688   1.077       .  S
C1676      C1682   1.432       .  A
C1676      C1677   1.422   1_655  A
C1677      C1679   1.397       .  A
C1677      C1678   1.396       .  A
C1678      H1689   1.085       .  S
C1679      C1680   1.383       .  A
C1679      H1690   1.084       .  S
C1680      C1681   1.397       .  A
C1680      H1691   1.084       .  S
C1681      C1682   1.423   1_455  A
C1681      C1686   1.398       .  A
C1682      C1683   1.416       .  A
C1683      C1684   1.402       .  A
C1683      H1692   1.077       .  S
C1684      C1685   1.403       .  A
C1684      H1693   1.083       .  S
C1685      C1686   1.398   1_655  A
C1686      H1694   1.085       .  S
C1695      C1696   1.399       .  A
C1695      C1700   1.408       .  A
C1696      C1697   1.393       .  A
C1696      H1709   1.084       .  S
C1697      C1698   1.414       .  A
C1697      H1710   1.075       .  S
C1698      C1704   1.432       .  A
C1698      C1699   1.422       .  A
C1699      C1701   1.403       .  A
C1699      C1700   1.414       .  A
C1700      H1711   1.084       .  S
C1701      C1702   1.397       .  A
C1701      H1712   1.084       .  S
C1702      C1703   1.402       .  A
C1702      H1713   1.084       .  S
C1703      C1704   1.424       .  A
C1703      C1708   1.416       .  A
C1704      C1705   1.413       .  A
C1705      C1706   1.391       .  A
C1705      H1714   1.075       .  S
C1706      C1707   1.399       .  A
C1706      H1715   1.084       .  S
C1707      C1708   1.405       .  A
C1708      H1716   1.084       .  S
C1717      C1718   1.400       .  A
C1717      C1722   1.401       .  A
C1718      C1719   1.395       .  A
C1718      H1731   1.083       .  S
C1719      C1720   1.413       .  A
C1719      H1732   1.077       .  S
C1720      C1726   1.428       .  A
C1720      C1721   1.423       .  A
C1721      C1723   1.398       .  A
C1721      C1722   1.402       .  A
C1722      H1733   1.084       .  S
C1723      C1724   1.388       .  A
C1723      H1734   1.084       .  S
C1724      C1725   1.399       .  A
C1724      H1735   1.084       .  S
C1725      C1726   1.421       .  A
C1725      C1730   1.400       .  A
C1726      C1727   1.417       .  A
C1727      C1728   1.397       .  A
C1727      H1736   1.077       .  S
C1728      C1729   1.399       .  A
C1728      H1737   1.083       .  S
C1729      C1730   1.402       .  A
C1730      H1738   1.084       .  S
C1739      C1740   1.397       .  A
C1739      C1744   1.399       .  A
C1740      C1741   1.392       .  A
C1740      H1753   1.084       .  S
C1741      C1742   1.413       .  A
C1741      H1754   1.077       .  S
C1742      C1748   1.427       .  A
C1742      C1743   1.424       .  A
C1743      C1745   1.400       .  A
C1743      C1744   1.409       .  A
C1744      H1755   1.085       .  S
C1745      C1746   1.392       .  A
C1745      H1756   1.084       .  S
C1746      C1747   1.401       .  A
C1746      H1757   1.084       .  S
C1747      C1748   1.422       .  A
C1747      C1752   1.406       .  A
C1748      C1749   1.415       .  A
C1749      C1750   1.393       .  A
C1749      H1758   1.077       .  S
C1750      C1751   1.398       .  A
C1750      H1759   1.084       .  S
C1751      C1752   1.401       .  A
C1752      H1760   1.085       .  S
C1761      C1762   1.399       .  A
C1761      C1766   1.404       .  A
C1762      C1763   1.397       .  A
C1762      H1775   1.084       .  S
C1763      C1764   1.415       .  A
C1763      H1776   1.077       .  S
C1764      C1770   1.430       .  A
C1764      C1765   1.422       .  A
C1765      C1767   1.400       .  A
C1765      C1766   1.407       .  A
C1766      H1777   1.085       .  S
C1767      C1768   1.392       .  A
C1767      H1778   1.084       .  S
C1768      C1769   1.401       .  A
C1768      H1779   1.084       .  S
C1769      C1770   1.423       .  A
C1769      C1774   1.407       .  A
C1770      C1771   1.416       .  A
C1771      C1772   1.397       .  A
C1771      H1780   1.076       .  S
C1772      C1773   1.398       .  A
C1772      H1781   1.084       .  S
C1773      C1774   1.403       .  A
C1774      H1782   1.085       .  S
C1783      C1784   1.397       .  A
C1783      C1788   1.403       .  A
C1784      C1785   1.390       .  A
C1784      H1797   1.084       .  S
C1785      C1786   1.414       .  A
C1785      H1798   1.076       .  S
C1786      C1792   1.425       .  A
C1786      C1787   1.421       .  A
C1787      C1789   1.402       .  A
C1787      C1788   1.408       .  A
C1788      H1799   1.084       .  S
C1789      C1790   1.394       .  A
C1789      H1800   1.084       .  S
C1790      C1791   1.401       .  A
C1790      H1801   1.084       .  S
C1791      C1792   1.423       .  A
C1791      C1796   1.410       .  A
C1792      C1793   1.411       .  A
C1793      C1794   1.388       .  A
C1793      H1802   1.076       .  S
C1794      C1795   1.399       .  A
C1794      H1803   1.084       .  S
C1795      C1796   1.402       .  A
C1796      H1804   1.084       .  S
C1805      C1806   1.402       .  A
C1805      C1810   1.403       .  A
C1806      C1807   1.397       .  A
C1806      H1819   1.083       .  S
C1807      C1808   1.414       .  A
C1807      H1820   1.078       .  S
C1808      C1814   1.433       .  A
C1808      C1809   1.424       .  A
C1809      C1811   1.400       .  A
C1809      C1810   1.410       .  A
C1810      H1821   1.084       .  S
C1811      C1812   1.392       .  A
C1811      H1822   1.084       .  S
C1812      C1813   1.400       .  A
C1812      H1823   1.084       .  S
C1813      C1814   1.422       .  A
C1813      C1818   1.408       .  A
C1814      C1815   1.416       .  A
C1815      C1816   1.400       .  A
C1815      H1824   1.078       .  S
C1816      C1817   1.401       .  A
C1816      H1825   1.083       .  S
C1817      C1818   1.403       .  A
C1818      H1826   1.085       .  S
C1827      C1828   1.397       .  A
C1827      C1832   1.397       .  A
C1828      C1829   1.402       .  A
C1828      H1841   1.084       .  S
C1829      C1830   1.419       .  A
C1829      H1842   1.078       .  S
C1830      C1836   1.432       .  A
C1830      C1831   1.423       .  A
C1831      C1833   1.398       .  A
C1831      C1832   1.400       .  A
C1832      H1843   1.086       .  S
C1833      C1834   1.386       .  A
C1833      H1844   1.084       .  S
C1834      C1835   1.398       .  A
C1834      H1845   1.084       .  S
C1835      C1836   1.423       .  A
C1835      C1840   1.402       .  A
C1836      C1837   1.416       .  A
C1837      C1838   1.401       .  A
C1837      H1846   1.078       .  S
C1838      C1839   1.401       .  A
C1838      H1847   1.083       .  S
C1839      C1840   1.399       .  A
C1840      H1848   1.085       .  S
C1849      C1850   1.399       .  A
C1849      C1854   1.400       .  A
C1850      C1851   1.401       .  A
C1850      H1863   1.083       .  S
C1851      C1852   1.417       .  A
C1851      H1864   1.078       .  S
C1852      C1858   1.429       .  A
C1852      C1853   1.422       .  A
C1853      C1855   1.398       .  A
C1853      C1854   1.398       .  A
C1854      H1865   1.085       .  S
C1855      C1856   1.385       .  A
C1855      H1866   1.084       .  S
C1856      C1857   1.398       .  A
C1856      H1867   1.084       .  S
C1857      C1858   1.422       .  A
C1857      C1862   1.397       .  A
C1858      C1859   1.417       .  A
C1859      C1860   1.401       .  A
C1859      H1868   1.078       .  S
C1860      C1861   1.398       .  A
C1860      H1869   1.083       .  S
C1861      C1862   1.398       .  A
C1862      H1870   1.086       .  S
C1871      C1872   1.399       .  A
C1871      C1876   1.407       .  A
C1872      C1873   1.389       .  A
C1872      H1885   1.084       .  S
C1873      C1874   1.411       .  A
C1873      H1886   1.077       .  S
C1874      C1880   1.430       .  A
C1874      C1875   1.423       .  A
C1875      C1877   1.403       .  A
C1875      C1876   1.419       .  A
C1876      H1887   1.084       .  S
C1877      C1878   1.400       .  A
C1877      H1888   1.083       .  S
C1878      C1879   1.404       .  A
C1878      H1889   1.083       .  S
C1879      C1880   1.421       .  A
C1879      C1884   1.417       .  A
C1880      C1881   1.412       .  A
C1881      C1882   1.391       .  A
C1881      H1890   1.077       .  S
C1882      C1883   1.400       .  A
C1882      H1891   1.084       .  S
C1883      C1884   1.409       .  A
C1884      H1892   1.084       .  S
C1893      C1894   1.402       .  A
C1893      C1898   1.399       .  A
C1894      C1895   1.402       .  A
C1894      H1907   1.083       .  S
C1895      C1896   1.416       .  A
C1895      H1908   1.078       .  S
C1896      C1902   1.433       .  A
C1896      C1897   1.424       .  A
C1897      C1899   1.398       .  A
C1897      C1898   1.402       .  A
C1898      H1909   1.085       .  S
C1899      C1900   1.385       .  A
C1899      H1910   1.084       .  S
C1900      C1901   1.398       .  A
C1900      H1911   1.085       .  S
C1901      C1902   1.422       .  A
C1901      C1906   1.398       .  A
C1902      C1903   1.419       .  A
C1903      C1904   1.404       .  A
C1903      H1912   1.078       .  S
C1904      C1905   1.400       .  A
C1904      H1913   1.083       .  S
C1905      C1906   1.398       .  A
C1906      H1914   1.086       .  S
C1915      C1916   1.400       .  A
C1915      C1920   1.400       .  A
C1916      C1917   1.400       .  A
C1916      H1929   1.083       .  S
C1917      C1918   1.416       .  A
C1917      H1930   1.078       .  S
C1918      C1924   1.430       .  A
C1918      C1919   1.423       .  A
C1919      C1921   1.398       .  A
C1919      C1920   1.400       .  A
C1920      H1931   1.085       .  S
C1921      C1922   1.386       .  A
C1921      H1932   1.084       .  S
C1922      C1923   1.398       .  A
C1922      H1933   1.084   1_556  S
C1923      C1924   1.422       .  A
C1923      C1928   1.398       .  A
C1924      C1925   1.419       .  A
C1925      C1926   1.401       .  A
C1925      H1934   1.077       .  S
C1926      C1927   1.396       .  A
C1926      H1935   1.084       .  S
C1927      C1928   1.398       .  A
C1928      H1936   1.086   1_556  S
C1937      C1938   1.403       .  A
C1937      C1942   1.403       .  A
C1938      C1939   1.397       .  A
C1938      H1951   1.083       .  S
C1939      C1940   1.414       .  A
C1939      H1952   1.078       .  S
C1940      C1946   1.430       .  A
C1940      C1941   1.422       .  A
C1941      C1943   1.400       .  A
C1941      C1942   1.406       .  A
C1942      H1953   1.084       .  S
C1943      C1944   1.390       .  A
C1943      H1954   1.084       .  S
C1944      C1945   1.399       .  A
C1944      H1955   1.084       .  S
C1945      C1946   1.423       .  A
C1945      C1950   1.406       .  A
C1946      C1947   1.415       .  A
C1947      C1948   1.396       .  A
C1947      H1956   1.078       .  S
C1948      C1949   1.400       .  A
C1948      H1957   1.083       .  S
C1949      C1950   1.400       .  A
C1950      H1958   1.085       .  S
C1959      C1960   1.402       .  A
C1959      C1964   1.403       .  A
C1960      C1961   1.388       .  A
C1960      H1973   1.083       .  S
C1961      C1962   1.411       .  A
C1961      H1974   1.076       .  S
C1962      C1968   1.426       .  A
C1962      C1963   1.423       .  A
C1963      C1965   1.400       .  A
C1963      C1964   1.409       .  A
C1964      H1975   1.084       .  S
C1965      C1966   1.393       .  A
C1965      H1976   1.084       .  S
C1966      C1967   1.401       .  A
C1966      H1977   1.084       .  S
C1967      C1968   1.422       .  A
C1967      C1972   1.407       .  A
C1968      C1969   1.413       .  A
C1969      C1970   1.389       .  A
C1969      H1978   1.076       .  S
C1970      C1971   1.399       .  A
C1970      H1979   1.084       .  S
C1971      C1972   1.403       .  A
C1972      H1980   1.084       .  S
C1981      C1982   1.394       .  A
C1981      C1986   1.397       .  A
C1982      C1983   1.393       .  A
C1982      H1995   1.084       .  S
C1983      C1984   1.415       .  A
C1983      H1996   1.078       .  S
C1984      C1990   1.422       .  A
C1984      C1985   1.422       .  A
C1985      C1987   1.399       .  A
C1985      C1986   1.399       .  A
C1986      H1997   1.085       .  S
C1987      C1988   1.388       .  A
C1987      H1998   1.084       .  S
C1988      C1989   1.399       .  A
C1988      H1999   1.084       .  S
C1989      C1990   1.422       .  A
C1989      C1994   1.399       .  A
C1990      C1991   1.415       .  A
C1991      C1992   1.393       .  A
C1991      H2000   1.078       .  S
C1992      C1993   1.396       .  A
C1992      H2001   1.084       .  S
C1993      C1994   1.398       .  A
C1994      H2002   1.085       .  S
C2003      C2004   1.398       .  A
C2003      C2008   1.399       .  A
C2004      C2005   1.393       .  A
C2004      H2017   1.084       .  S
C2005      C2006   1.414       .  A
C2005      H2018   1.078       .  S
C2006      C2012   1.427       .  A
C2006      C2007   1.423       .  A
C2007      C2009   1.399       .  A
C2007      C2008   1.403       .  A
C2008      H2019   1.085       .  S
C2009      C2010   1.389       .  A
C2009      H2020   1.084       .  S
C2010      C2011   1.399       .  A
C2010      H2021   1.084       .  S
C2011      C2012   1.422       .  A
C2011      C2016   1.403       .  A
C2012      C2013   1.414       .  A
C2013      C2014   1.393       .  A
C2013      H2022   1.077       .  S
C2014      C2015   1.400       .  A
C2014      H2023   1.083       .  S
C2015      C2016   1.401       .  A
C2016      H2024   1.085       .  S
C2025      C2026   1.401       .  A
C2025      C2030   1.400       .  A
C2026      C2027   1.398       .  A
C2026      H2039   1.083       .  S
C2027      C2028   1.416       .  A
C2027      H2040   1.077       .  S
C2028      C2034   1.427       .  A
C2028      C2029   1.422       .  A
C2029      C2031   1.398       .  A
C2029      C2030   1.397       .  A
C2030      H2041   1.085       .  S
C2031      C2032   1.385       .  A
C2031      H2042   1.084       .  S
C2032      C2033   1.397       .  A
C2032      H2043   1.084       .  S
C2033      C2034   1.423       .  A
C2033      C2038   1.398       .  A
C2034      C2035   1.417       .  A
C2035      C2036   1.398       .  A
C2035      H2044   1.077       .  S
C2036      C2037   1.397       .  A
C2036      H2045   1.084       .  S
C2037      C2038   1.394       .  A
C2038      H2046   1.085       .  S
C2047      C2048   1.400       .  A
C2047      C2052   1.398       .  A
C2048      C2049   1.398       .  A
C2048      H2061   1.083       .  S
C2049      C2050   1.415       .  A
C2049      H2062   1.077       .  S
C2050      C2056   1.428       .  A
C2050      C2051   1.423       .  A
C2051      C2053   1.397       .  A
C2051      C2052   1.397       .  A
C2052      H2063   1.085       .  S
C2053      C2054   1.384       .  A
C2053      H2064   1.084       .  S
C2054      C2055   1.398       .  A
C2054      H2065   1.084       .  S
C2055      C2056   1.421       .  A
C2055      C2060   1.395       .  A
C2056      C2057   1.417       .  A
C2057      C2058   1.400       .  A
C2057      H2066   1.077       .  S
C2058      C2059   1.400       .  A
C2058      H2067   1.083       .  S
C2059      C2060   1.401       .  A
C2060      H2068   1.085       .  S
C2069      C2070   1.397       .  A
C2069      C2074   1.398   1_556  A
C2070      C2071   1.396       .  A
C2070      H2083   1.084       .  S
C2071      C2072   1.415   1_556  A
C2071      H2084   1.077       .  S
C2072      C2078   1.433       .  A
C2072      C2073   1.425       .  A
C2073      C2075   1.400       .  A
C2073      C2074   1.411       .  A
C2074      H2085   1.084       .  S
C2075      C2076   1.393       .  A
C2075      H2086   1.084       .  S
C2076      C2077   1.401       .  A
C2076      H2087   1.084       .  S
C2077      C2078   1.422       .  A
C2077      C2082   1.410       .  A
C2078      C2079   1.415   1_554  A
C2079      C2080   1.398       .  A
C2079      H2088   1.077       .  S
C2080      C2081   1.402   1_556  A
C2080      H2089   1.083       .  S
C2081      C2082   1.405       .  A
C2082      H2090   1.084       .  S
C2091      C2092   1.403       .  A
C2091      C2096   1.402       .  A
C2092      C2093   1.402       .  A
C2092      H2105   1.083       .  S
C2093      C2094   1.415       .  A
C2093      H2106   1.079       .  S
C2094      C2100   1.434       .  A
C2094      C2095   1.423       .  A
C2095      C2097   1.399       .  A
C2095      C2096   1.405       .  A
C2096      H2107   1.085       .  S
C2097      C2098   1.389       .  A
C2097      H2108   1.084       .  S
C2098      C2099   1.400       .  A
C2098      H2109   1.084       .  S
C2099      C2100   1.421       .  A
C2099      C2104   1.403       .  A
C2100      C2101   1.419       .  A
C2101      C2102   1.406       .  A
C2101      H2110   1.079       .  S
C2102      C2103   1.401       .  A
C2102      H2111   1.083       .  S
C2103      C2104   1.402       .  A
C2104      H2112   1.085       .  S
C2113      C2114   1.400       .  A
C2113      C2118   1.406       .  A
C2114      C2115   1.395       .  A
C2114      H2127   1.083       .  S
C2115      C2116   1.415       .  A
C2115      H2128   1.077       .  S
C2116      C2122   1.431       .  A
C2116      C2117   1.421       .  A
C2117      C2119   1.401       .  A
C2117      C2118   1.410       .  A
C2118      H2129   1.084       .  S
C2119      C2120   1.394       .  A
C2119      H2130   1.084       .  S
C2120      C2121   1.401       .  A
C2120      H2131   1.084       .  S
C2121      C2122   1.423       .  A
C2121      C2126   1.412       .  A
C2122      C2123   1.413       .  A
C2123      C2124   1.394       .  A
C2123      H2132   1.077       .  S
C2124      C2125   1.402       .  A
C2124      H2133   1.083       .  S
C2125      C2126   1.406       .  A
C2126      H2134   1.084       .  S
C2135      C2136   1.396       .  A
C2135      C2140   1.400       .  A
C2136      C2137   1.397       .  A
C2136      H2149   1.084       .  S
C2137      C2138   1.417       .  A
C2137      H2150   1.078       .  S
C2138      C2144   1.430       .  A
C2138      C2139   1.422       .  A
C2139      C2141   1.400       .  A
C2139      C2140   1.406       .  A
C2140      H2151   1.085       .  S
C2141      C2142   1.392       .  A
C2141      H2152   1.084       .  S
C2142      C2143   1.400       .  A
C2142      H2153   1.084       .  S
C2143      C2144   1.425       .  A
C2143      C2148   1.409       .  A
C2144      C2145   1.414       .  A
C2145      C2146   1.394       .  A
C2145      H2154   1.078       .  S
C2146      C2147   1.397       .  A
C2146      H2155   1.084       .  S
C2147      C2148   1.399       .  A
C2148      H2156   1.085       .  S
C2157      C2158   1.402       .  A
C2157      C2162   1.404       .  A
C2158      C2159   1.397       .  A
C2158      H2171   1.083       .  S
C2159      C2160   1.414       .  A
C2159      H2172   1.076       .  S
C2160      C2166   1.433       .  A
C2160      C2161   1.424       .  A
C2161      C2163   1.400       .  A
C2161      C2162   1.411       .  A
C2162      H2173   1.084       .  S
C2163      C2164   1.392       .  A
C2163      H2174   1.084       .  S
C2164      C2165   1.400       .  A
C2164      H2175   1.084       .  S
C2165      C2166   1.422       .  A
C2165      C2170   1.408       .  A
C2166      C2167   1.417       .  A
C2167      C2168   1.399       .  A
C2167      H2176   1.076       .  S
C2168      C2169   1.399       .  A
C2168      H2177   1.084       .  S
C2169      C2170   1.403       .  A
C2170      H2178   1.084       .  S
C2179      C2180   1.400       .  A
C2179      C2184   1.400       .  A
C2180      C2181   1.398       .  A
C2180      H2193   1.084       .  S
C2181      C2182   1.416       .  A
C2181      H2194   1.077       .  S
C2182      C2188   1.431       .  A
C2182      C2183   1.423       .  A
C2183      C2185   1.399       .  A
C2183      C2184   1.406       .  A
C2184      H2195   1.085       .  S
C2185      C2186   1.390       .  A
C2185      H2196   1.084       .  S
C2186      C2187   1.400       .  A
C2186      H2197   1.084       .  S
C2187      C2188   1.424       .  A
C2187      C2192   1.407       .  A
C2188      C2189   1.416       .  A
C2189      C2190   1.398       .  A
C2189      H2198   1.077       .  S
C2190      C2191   1.399       .  A
C2190      H2199   1.084       .  S
C2191      C2192   1.401       .  A
C2192      H2200   1.085       .  S
C2201      C2202   1.404       .  A
C2201      C2206   1.403       .  A
C2202      C2203   1.409       .  A
C2202      H2215   1.083       .  S
C2203      C2204   1.419       .  A
C2203      H2216   1.079       .  S
C2204      C2210   1.439       .  A
C2204      C2205   1.423       .  A
C2205      C2207   1.398       .  A
C2205      C2206   1.403       .  A
C2206      H2217   1.084       .  S
C2207      C2208   1.385       .  A
C2207      H2218   1.084       .  S
C2208      C2209   1.398       .  A
C2208      H2219   1.084       .  S
C2209      C2210   1.423       .  A
C2209      C2214   1.403       .  A
C2210      C2211   1.419       .  A
C2211      C2212   1.409       .  A
C2211      H2220   1.078       .  S
C2212      C2213   1.405       .  A
C2212      H2221   1.083       .  S
C2213      C2214   1.403       .  A
C2214      H2222   1.084       .  S
C2223      C2224   1.402       .  A
C2223      C2228   1.403       .  A
C2224      C2225   1.402       .  A
C2224      H2237   1.083       .  S
C2225      C2226   1.417       .  A
C2225      H2238   1.077       .  S
C2226      C2232   1.436       .  A
C2226      C2227   1.423       .  A
C2227      C2229   1.400       .  A
C2227      C2228   1.408       .  A
C2228      H2239   1.084       .  S
C2229      C2230   1.390       .  A
C2229      H2240   1.084       .  S
C2230      C2231   1.400       .  A
C2230      H2241   1.084       .  S
C2231      C2232   1.423       .  A
C2231      C2236   1.408       .  A
C2232      C2233   1.417       .  A
C2233      C2234   1.402       .  A
C2233      H2242   1.077       .  S
C2234      C2235   1.402       .  A
C2234      H2243   1.083       .  S
C2235      C2236   1.403       .  A
C2236      H2244   1.085       .  S
C2245      C2246   1.401       .  A
C2245      C2250   1.400       .  A
C2246      C2247   1.400       .  A
C2246      H2259   1.083       .  S
C2247      C2248   1.416       .  A
C2247      H2260   1.078       .  S
C2248      C2254   1.431       .  A
C2248      C2249   1.423       .  A
C2249      C2251   1.398       .  A
C2249      C2250   1.403       .  A
C2250      H2261   1.085       .  S
C2251      C2252   1.388       .  A
C2251      H2262   1.084       .  S
C2252      C2253   1.399       .  A
C2252      H2263   1.084       .  S
C2253      C2254   1.423       .  A
C2253      C2258   1.401       .  A
C2254      C2255   1.418       .  A
C2255      C2256   1.401       .  A
C2255      H2264   1.078       .  S
C2256      C2257   1.397       .  A
C2256      H2265   1.083       .  S
C2257      C2258   1.397       .  A
C2258      H2266   1.086       .  S
C2267      C2268   1.398       .  A
C2267      C2272   1.398       .  A
C2268      C2269   1.400       .  A
C2268      H2281   1.084       .  S
C2269      C2270   1.418       .  A
C2269      H2282   1.078       .  S
C2270      C2276   1.432       .  A
C2270      C2271   1.423       .  A
C2271      C2273   1.398       .  A
C2271      C2272   1.402       .  A
C2272      H2283   1.085       .  S
C2273      C2274   1.388       .  A
C2273      H2284   1.084       .  S
C2274      C2275   1.399       .  A
C2274      H2285   1.084       .  S
C2275      C2276   1.423       .  A
C2275      C2280   1.403       .  A
C2276      C2277   1.415       .  A
C2277      C2278   1.400       .  A
C2277      H2286   1.078       .  S
C2278      C2279   1.403       .  A
C2278      H2287   1.083       .  S
C2279      C2280   1.402       .  A
C2280      H2288   1.085       .  S
C2289      C2290   1.401       .  A
C2289      C2294   1.402       .  A
C2290      C2291   1.398   1_556  A
C2290      H2303   1.083       .  S
C2291      C2292   1.415       .  A
C2291      H2304   1.077       .  S
C2292      C2298   1.431       .  A
C2292      C2293   1.423       .  A
C2293      C2295   1.399       .  A
C2293      C2294   1.405   1_554  A
C2294      H2305   1.085       .  S
C2295      C2296   1.389       .  A
C2295      H2306   1.084   1_554  S
C2296      C2297   1.399       .  A
C2296      H2307   1.084       .  S
C2297      C2298   1.422       .  A
C2297      C2302   1.403       .  A
C2298      C2299   1.417       .  A
C2299      C2300   1.399       .  A
C2299      H2308   1.077       .  S
C2300      C2301   1.399       .  A
C2300      H2309   1.083       .  S
C2301      C2302   1.401       .  A
C2302      H2310   1.085       .  S
C2311      C2312   1.402       .  A
C2311      C2316   1.402       .  A
C2312      C2313   1.399       .  A
C2312      H2325   1.083       .  S
C2313      C2314   1.415       .  A
C2313      H2326   1.078       .  S
C2314      C2320   1.432       .  A
C2314      C2315   1.423       .  A
C2315      C2317   1.399       .  A
C2315      C2316   1.405       .  A
C2316      H2327   1.085       .  S
C2317      C2318   1.389       .  A
C2317      H2328   1.084       .  S
C2318      C2319   1.399       .  A
C2318      H2329   1.084       .  S
C2319      C2320   1.423       .  A
C2319      C2324   1.404       .  A
C2320      C2321   1.417       .  A
C2321      C2322   1.400       .  A
C2321      H2330   1.078       .  S
C2322      C2323   1.400       .  A
C2322      H2331   1.083       .  S
C2323      C2324   1.401       .  A
C2324      H2332   1.085       .  S
C2333      C2334   1.398       .  A
C2333      C2338   1.398       .  A
C2334      C2335   1.400       .  A
C2334      H2347   1.084       .  S
C2335      C2336   1.417       .  A
C2335      H2348   1.079       .  S
C2336      C2342   1.434       .  A
C2336      C2337   1.423       .  A
C2337      C2339   1.399       .  A
C2337      C2338   1.406       .  A
C2338      H2349   1.085       .  S
C2339      C2340   1.391       .  A
C2339      H2350   1.084       .  S
C2340      C2341   1.400       .  A
C2340      H2351   1.084       .  S
C2341      C2342   1.423       .  A
C2341      C2346   1.408       .  A
C2342      C2343   1.415       .  A
C2343      C2344   1.400       .  A
C2343      H2352   1.079       .  S
C2344      C2345   1.403       .  A
C2344      H2353   1.083       .  S
C2345      C2346   1.403       .  A
C2346      H2354   1.085       .  S
C2355      C2356   1.400       .  A
C2355      C2360   1.396       .  A
C2356      C2357   1.402       .  A
C2356      H2369   1.083       .  S
C2357      C2358   1.417       .  A
C2357      H2370   1.078       .  S
C2358      C2364   1.429       .  A
C2358      C2359   1.422       .  A
C2359      C2361   1.398       .  A
C2359      C2360   1.398       .  A
C2360      H2371   1.086       .  S
C2361      C2362   1.386       .  A
C2361      H2372   1.084       .  S
C2362      C2363   1.397       .  A
C2362      H2373   1.084       .  S
C2363      C2364   1.423       .  A
C2363      C2368   1.400       .  A
C2364      C2365   1.416       .  A
C2365      C2366   1.401       .  A
C2365      H2374   1.078       .  S
C2366      C2367   1.399       .  A
C2366      H2375   1.083       .  S
C2367      C2368   1.396       .  A
C2368      H2376   1.085       .  S
C2377      C2378   1.402       .  A
C2377      C2382   1.405       .  A
C2378      C2379   1.391       .  A
C2378      H2391   1.083       .  S
C2379      C2380   1.412   1_554  A
C2379      H2392   1.078       .  S
C2380      C2386   1.428       .  A
C2380      C2381   1.422   1_556  A
C2381      C2383   1.401   1_554  A
C2381      C2382   1.411       .  A
C2382      H2393   1.084       .  S
C2383      C2384   1.395       .  A
C2383      H2394   1.084       .  S
C2384      C2385   1.402       .  A
C2384      H2395   1.084       .  S
C2385      C2386   1.422       .  A
C2385      C2390   1.411       .  A
C2386      C2387   1.412       .  A
C2387      C2388   1.391       .  A
C2387      H2396   1.078       .  S
C2388      C2389   1.402       .  A
C2388      H2397   1.083       .  S
C2389      C2390   1.406       .  A
C2390      H2398   1.084       .  S
C2399      C2400   1.403       .  A
C2399      C2404   1.401       .  A
C2400      C2401   1.404       .  A
C2400      H2413   1.083       .  S
C2401      C2402   1.417       .  A
C2401      H2414   1.078       .  S
C2402      C2408   1.435       .  A
C2402      C2403   1.423       .  A
C2403      C2405   1.398       .  A
C2403      C2404   1.403       .  A
C2404      H2415   1.085       .  S
C2405      C2406   1.387       .  A
C2405      H2416   1.084       .  S
C2406      C2407   1.398       .  A
C2406      H2417   1.084       .  S
C2407      C2408   1.423       .  A
C2407      C2412   1.402       .  A
C2408      C2409   1.419       .  A
C2409      C2410   1.405       .  A
C2409      H2418   1.078       .  S
C2410      C2411   1.400       .  A
C2410      H2419   1.083       .  S
C2411      C2412   1.399       .  A
C2412      H2420   1.085       .  S
C2421      C2422   1.400       .  A
C2421      C2426   1.402       .  A
C2422      C2423   1.397       .  A
C2422      H2435   1.084       .  S
C2423      C2424   1.415       .  A
C2423      H2436   1.078       .  S
C2424      C2430   1.429       .  A
C2424      C2425   1.422       .  A
C2425      C2427   1.400       .  A
C2425      C2426   1.404       .  A
C2426      H2437   1.085       .  S
C2427      C2428   1.389       .  A
C2427      H2438   1.084       .  S
C2428      C2429   1.399       .  A
C2428      H2439   1.084       .  S
C2429      C2430   1.422       .  A
C2429      C2434   1.403       .  A
C2430      C2431   1.415       .  A
C2431      C2432   1.397       .  A
C2431      H2440   1.078       .  S
C2432      C2433   1.399       .  A
C2432      H2441   1.083       .  S
C2433      C2434   1.402       .  A
C2434      H2442   1.085       .  S
C2443      C2444   1.398       .  A
C2443      C2448   1.395       .  A
C2444      C2445   1.399       .  A
C2444      H2457   1.084       .  S
C2445      C2446   1.416       .  A
C2445      H2458   1.078       .  S
C2446      C2452   1.432       .  A
C2446      C2447   1.425       .  A
C2447      C2449   1.398       .  A
C2447      C2448   1.403       .  A
C2448      H2459   1.085       .  S
C2449      C2450   1.387       .  A
C2449      H2460   1.084       .  S
C2450      C2451   1.398       .  A
C2450      H2461   1.084       .  S
C2451      C2452   1.422       .  A
C2451      C2456   1.399       .  A
C2452      C2453   1.420       .  A
C2453      C2454   1.403       .  A
C2453      H2462   1.078       .  S
C2454      C2455   1.397       .  A
C2454      H2463   1.083       .  S
C2455      C2456   1.397       .  A
C2456      H2464   1.086   1_556  S
C2465      C2466   1.401       .  A
C2465      C2470   1.405       .  A
C2466      C2467   1.398       .  A
C2466      H2479   1.083       .  S
C2467      C2468   1.416       .  A
C2467      H2480   1.077       .  S
C2468      C2474   1.432       .  A
C2468      C2469   1.421       .  A
C2469      C2471   1.400       .  A
C2469      C2470   1.407       .  A
C2470      H2481   1.084       .  S
C2471      C2472   1.392       .  A
C2471      H2482   1.084       .  S
C2472      C2473   1.400       .  A
C2472      H2483   1.084       .  S
C2473      C2474   1.424       .  A
C2473      C2478   1.411       .  A
C2474      C2475   1.412       .  A
C2475      C2476   1.394       .  A
C2475      H2484   1.077       .  S
C2476      C2477   1.403       .  A
C2476      H2485   1.083       .  S
C2477      C2478   1.403       .  A
C2478      H2486   1.084       .  S
C2487      C2488   1.400       .  A
C2487      C2492   1.405       .  A
C2488      C2489   1.403   1_556  A
C2488      H2501   1.083   1_556  S
C2489      C2490   1.418   1_554  A
C2489      H2502   1.078       .  S
C2490      C2496   1.435       .  A
C2490      C2491   1.421       .  A
C2491      C2493   1.400       .  A
C2491      C2492   1.404       .  A
C2492      H2503   1.085       .  S
C2493      C2494   1.389       .  A
C2493      H2504   1.084       .  S
C2494      C2495   1.399       .  A
C2494      H2505   1.084       .  S
C2495      C2496   1.423       .  A
C2495      C2500   1.406       .  A
C2496      C2497   1.416   1_556  A
C2497      C2498   1.401       .  A
C2497      H2506   1.078       .  S
C2498      C2499   1.402       .  A
C2498      H2507   1.083       .  S
C2499      C2500   1.405   1_554  A
C2500      H2508   1.084       .  S
C2509      C2510   1.401       .  A
C2509      C2514   1.405       .  A
C2510      C2511   1.390       .  A
C2510      H2523   1.083       .  S
C2511      C2512   1.412       .  A
C2511      H2524   1.078       .  S
C2512      C2518   1.429       .  A
C2512      C2513   1.423       .  A
C2513      C2515   1.401       .  A
C2513      C2514   1.412       .  A
C2514      H2525   1.084       .  S
C2515      C2516   1.395       .  A
C2515      H2526   1.084       .  S
C2516      C2517   1.402       .  A
C2516      H2527   1.084       .  S
C2517      C2518   1.421       .  A
C2517      C2522   1.410       .  A
C2518      C2519   1.414       .  A
C2519      C2520   1.391       .  A
C2519      H2528   1.078       .  S
C2520      C2521   1.399       .  A
C2520      H2529   1.083       .  S
C2521      C2522   1.407       .  A
C2522      H2530   1.084       .  S
C2531      C2532   1.399       .  A
C2531      C2536   1.399       .  A
C2532      C2533   1.397       .  A
C2532      H2545   1.084       .  S
C2533      C2534   1.416       .  A
C2533      H2546   1.078       .  S
C2534      C2540   1.427       .  A
C2534      C2535   1.422       .  A
C2535      C2537   1.400       .  A
C2535      C2536   1.402       .  A
C2536      H2547   1.085       .  S
C2537      C2538   1.390       .  A
C2537      H2548   1.084       .  S
C2538      C2539   1.399       .  A
C2538      H2549   1.084       .  S
C2539      C2540   1.422       .  A
C2539      C2544   1.404       .  A
C2540      C2541   1.413       .  A
C2541      C2542   1.394       .  A
C2541      H2550   1.078       .  S
C2542      C2543   1.401       .  A
C2542      H2551   1.084       .  S
C2543      C2544   1.400       .  A
C2544      H2552   1.085       .  S
C2553      C2554   1.400       .  A
C2553      C2558   1.400       .  A
C2554      C2555   1.405       .  A
C2554      H2567   1.083       .  S
C2555      C2556   1.419       .  A
C2555      H2568   1.079       .  S
C2556      C2562   1.435       .  A
C2556      C2557   1.422       .  A
C2557      C2559   1.399       .  A
C2557      C2558   1.402       .  A
C2558      H2569   1.085       .  S
C2559      C2560   1.388       .  A
C2559      H2570   1.083       .  S
C2560      C2561   1.399       .  A
C2560      H2571   1.084       .  S
C2561      C2562   1.423       .  A
C2561      C2566   1.406       .  A
C2562      C2563   1.415       .  A
C2563      C2564   1.403       .  A
C2563      H2572   1.079       .  S
C2564      C2565   1.405       .  A
C2564      H2573   1.083       .  S
C2565      C2566   1.401       .  A
C2566      H2574   1.085       .  S
C2575      C2576   1.400       .  A
C2575      C2580   1.402       .  A
C2576      C2577   1.401       .  A
C2576      H2589   1.083       .  S
C2577      C2578   1.418       .  A
C2577      H2590   1.077       .  S
C2578      C2584   1.432       .  A
C2578      C2579   1.421       .  A
C2579      C2581   1.400       .  A
C2579      C2580   1.404       .  A
C2580      H2591   1.085       .  S
C2581      C2582   1.390       .  A
C2581      H2592   1.084       .  S
C2582      C2583   1.399       .  A
C2582      H2593   1.084       .  S
C2583      C2584   1.424       .  A
C2583      C2588   1.408       .  A
C2584      C2585   1.414       .  A
C2585      C2586   1.398       .  A
C2585      H2594   1.077       .  S
C2586      C2587   1.401       .  A
C2586      H2595   1.084       .  S
C2587      C2588   1.402       .  A
C2588      H2596   1.085       .  S
C2597      C2598   1.400       .  A
C2597      C2602   1.402       .  A
C2598      C2599   1.391       .  A
C2598      H2611   1.084       .  S
C2599      C2600   1.412       .  A
C2599      H2612   1.078       .  S
C2600      C2606   1.425       .  A
C2600      C2601   1.421       .  A
C2601      C2603   1.400       .  A
C2601      C2602   1.406       .  A
C2602      H2613   1.084       .  S
C2603      C2604   1.393       .  A
C2603      H2614   1.084       .  S
C2604      C2605   1.401       .  A
C2604      H2615   1.084       .  S
C2605      C2606   1.422       .  A
C2605      C2610   1.407       .  A
C2606      C2607   1.413       .  A
C2607      C2608   1.392       .  A
C2607      H2616   1.077       .  S
C2608      C2609   1.399       .  A
C2608      H2617   1.084       .  S
C2609      C2610   1.402       .  A
C2610      H2618   1.084       .  S
C2619      C2620   1.396       .  A
C2619      C2624   1.396       .  A
C2620      C2621   1.398       .  A
C2620      H2633   1.084       .  S
C2621      C2622   1.418       .  A
C2621      H2634   1.077       .  S
C2622      C2628   1.428       .  A
C2622      C2623   1.422       .  A
C2623      C2625   1.399       .  A
C2623      C2624   1.401       .  A
C2624      H2635   1.086       .  S
C2625      C2626   1.389       .  A
C2625      H2636   1.084       .  S
C2626      C2627   1.399       .  A
C2626      H2637   1.084       .  S
C2627      C2628   1.425       .  A
C2627      C2632   1.406       .  A
C2628      C2629   1.413       .  A
C2629      C2630   1.394       .  A
C2629      H2638   1.078       .  S
C2630      C2631   1.397       .  A
C2630      H2639   1.084       .  S
C2631      C2632   1.397       .  A
C2632      H2640   1.085       .  S
C2641      C2642   1.402       .  A
C2641      C2646   1.406       .  A
C2642      C2643   1.394       .  A
C2642      H2655   1.083       .  S
C2643      C2644   1.413       .  A
C2643      H2656   1.076       .  S
C2644      C2650   1.432       .  A
C2644      C2645   1.422       .  A
C2645      C2647   1.402       .  A
C2645      C2646   1.413       .  A
C2646      H2657   1.084       .  S
C2647      C2648   1.396       .  A
C2647      H2658   1.084       .  S
C2648      C2649   1.401       .  A
C2648      H2659   1.084       .  S
C2649      C2650   1.424       .  A
C2649      C2654   1.414       .  A
C2650      C2651   1.413       .  A
C2651      C2652   1.393       .  A
C2651      H2660   1.076       .  S
C2652      C2653   1.401       .  A
C2652      H2661   1.084       .  S
C2653      C2654   1.404       .  A
C2654      H2662   1.084       .  S
C2663      C2664   1.403       .  A
C2663      C2668   1.402       .  A
C2664      C2665   1.403       .  A
C2664      H2677   1.083       .  S
C2665      C2666   1.417       .  A
C2665      H2678   1.078       .  S
C2666      C2672   1.435       .  A
C2666      C2667   1.423       .  A
C2667      C2669   1.399       .  A
C2667      C2668   1.404       .  A
C2668      H2679   1.085       .  S
C2669      C2670   1.387       .  A
C2669      H2680   1.084       .  S
C2670      C2671   1.398       .  A
C2670      H2681   1.084       .  S
C2671      C2672   1.423       .  A
C2671      C2676   1.403       .  A
C2672      C2673   1.418       .  A
C2673      C2674   1.403       .  A
C2673      H2682   1.078       .  S
C2674      C2675   1.400       .  A
C2674      H2683   1.083       .  S
C2675      C2676   1.400       .  A
C2676      H2684   1.085       .  S
C2685      C2686   1.397       .  A
C2685      C2690   1.399       .  A
C2686      C2687   1.397       .  A
C2686      H2699   1.084       .  S
C2687      C2688   1.416       .  A
C2687      H2700   1.078       .  S
C2688      C2694   1.428       .  A
C2688      C2689   1.422       .  A
C2689      C2691   1.400       .  A
C2689      C2690   1.404       .  A
C2690      H2701   1.084       .  S
C2691      C2692   1.391       .  A
C2691      H2702   1.084       .  S
C2692      C2693   1.400       .  A
C2692      H2703   1.084       .  S
C2693      C2694   1.422       .  A
C2693      C2698   1.404       .  A
C2694      C2695   1.416       .  A
C2695      C2696   1.398       .  A
C2695      H2704   1.078       .  S
C2696      C2697   1.397       .  A
C2696      H2705   1.084       .  S
C2697      C2698   1.401       .  A
C2698      H2706   1.085       .  S
C2707      C2708   1.400       .  A
C2707      C2712   1.408       .  A
C2708      C2709   1.389       .  A
C2708      H2721   1.084       .  S
C2709      C2710   1.412       .  A
C2709      H2722   1.077       .  S
C2710      C2716   1.425       .  A
C2710      C2711   1.420       .  A
C2711      C2713   1.403       .  A
C2711      C2712   1.411       .  A
C2712      H2723   1.084       .  S
C2713      C2714   1.397       .  A
C2713      H2724   1.083       .  S
C2714      C2715   1.402       .  A
C2714      H2725   1.083       .  S
C2715      C2716   1.421       .  A
C2715      C2720   1.412       .  A
C2716      C2717   1.410       .  A
C2717      C2718   1.387       .  A
C2717      H2726   1.077       .  S
C2718      C2719   1.400       .  A
C2718      H2727   1.084       .  S
C2719      C2720   1.407       .  A
C2720      H2728   1.084       .  S
C2729      C2730   1.402       .  A
C2729      C2734   1.396       .  A
C2730      C2731   1.405       .  A
C2730      H2743   1.083       .  S
C2731      C2732   1.417       .  A
C2731      H2744   1.079       .  S
C2732      C2738   1.434       .  A
C2732      C2733   1.423       .  A
C2733      C2735   1.397       .  A
C2733      C2734   1.400       .  A
C2734      H2745   1.085       .  S
C2735      C2736   1.384       .  A
C2735      H2746   1.084       .  S
C2736      C2737   1.398       .  A
C2736      H2747   1.084       .  S
C2737      C2738   1.421       .  A
C2737      C2742   1.398       .  A
C2738      C2739   1.419       .  A
C2739      C2740   1.407       .  A
C2739      H2748   1.079       .  S
C2740      C2741   1.403       .  A
C2740      H2749   1.083       .  S
C2741      C2742   1.400       .  A
C2742      H2750   1.085       .  S
C2751      C2752   1.397       .  A
C2751      C2756   1.394       .  A
C2752      C2753   1.398       .  A
C2752      H2765   1.084       .  S
C2753      C2754   1.416       .  A
C2753      H2766   1.077       .  S
C2754      C2760   1.430       .  A
C2754      C2755   1.425       .  A
C2755      C2757   1.398       .  A
C2755      C2756   1.402       .  A
C2756      H2767   1.086       .  S
C2757      C2758   1.387       .  A
C2757      H2768   1.084       .  S
C2758      C2759   1.398       .  A
C2758      H2769   1.084       .  S
C2759      C2760   1.423       .  A
C2759      C2764   1.400       .  A
C2760      C2761   1.418       .  A
C2761      C2762   1.400       .  A
C2761      H2770   1.077       .  S
C2762      C2763   1.396       .  A
C2762      H2771   1.084       .  S
C2763      C2764   1.396       .  A
C2764      H2772   1.085       .  S
C2773      C2774   1.401       .  A
C2773      C2778   1.404       .  A
C2774      C2775   1.395       .  A
C2774      H2787   1.083       .  S
C2775      C2776   1.414       .  A
C2775      H2788   1.077       .  S
C2776      C2782   1.431       .  A
C2776      C2777   1.423       .  A
C2777      C2779   1.400       .  A
C2777      C2778   1.409       .  A
C2778      H2789   1.084       .  S
C2779      C2780   1.392       .  A
C2779      H2790   1.084       .  S
C2780      C2781   1.401       .  A
C2780      H2791   1.084       .  S
C2781      C2782   1.422       .  A
C2781      C2786   1.409       .  A
C2782      C2783   1.415       .  A
C2783      C2784   1.396       .  A
C2783      H2792   1.077       .  S
C2784      C2785   1.400       .  A
C2784      H2793   1.083       .  S
C2785      C2786   1.406       .  A
C2786      H2794   1.084       .  S
C2795      C2796   1.399       .  A
C2795      C2800   1.398       .  A
C2796      C2797   1.393       .  A
C2796      H2809   1.084       .  S
C2797      C2798   1.414       .  A
C2797      H2810   1.077       .  S
C2798      C2804   1.427       .  A
C2798      C2799   1.423       .  A
C2799      C2801   1.399       .  A
C2799      C2800   1.405       .  A
C2800      H2811   1.085       .  S
C2801      C2802   1.390       .  A
C2801      H2812   1.084       .  S
C2802      C2803   1.399       .  A
C2802      H2813   1.084       .  S
C2803      C2804   1.422       .  A
C2803      C2808   1.404       .  A
C2804      C2805   1.414       .  A
C2805      C2806   1.394       .  A
C2805      H2814   1.077       .  S
C2806      C2807   1.399       .  A
C2806      H2815   1.082       .  S
C2807      C2808   1.400       .  A
C2808      H2816   1.085       .  S
