geometry optimzed in LAMMPS
_audit_creation_date              2020-12-01 
_audit_creation_method            'lammps2cif' 
_symmetry_space_group_name_H-M    'P1' 
_symmetry_Int_Tables_number       1 
_symmetry_cell_setting            triclinic 
loop_ 
_symmetry_equiv_pos_as_xyz 
  x,y,z 
_cell_length_a                    27.06803849 
_cell_length_b                    27.014014164474165 
_cell_length_c                    43.73946005155921 
_cell_angle_alpha                 89.52344138990337 
_cell_angle_beta                  88.12792990403754 
_cell_angle_gamma                 90.03417165447087 
loop_ 
_atom_site_label 
_atom_site_type_symbol 
_atom_site_fract_x 
_atom_site_fract_y 
_atom_site_fract_z 
_atom_site_charge 
O1          O  0.54517707  0.79337342  0.51210856    -0.82900
C2          C  0.45072743  0.77013364  0.12308475     0.96400
O3          O  0.42608869  0.77870008  0.09893944    -0.72100
O4          O  0.46338965  0.84404180  0.06254398    -0.75600
Al5        Al  0.44943078  0.77953840  0.05542270     1.49000
C6          C  0.49901604  0.87234398  0.06493198     0.91700
O7          O  0.59641070  0.78049062  0.09117404    -0.81900
O8          O  0.52938883  0.66347597  0.05570025    -0.75400
Al9        Al  0.56334071  0.78439196  0.05275854     1.90100
O10         O  0.57473626  0.70517468  0.10213058    -0.74500
O11         O  0.43937183  0.67904869  0.08582501    -0.74300
O12         O  0.48743710  0.74081132  0.12279164    -0.80000
O13         O  0.42343564  0.71839096  0.04461133    -0.78200
O14         O  0.50712900  0.75623294  0.06568746    -1.14300
O15         O  0.46525693  0.78525147  0.51208378    -0.73500
C16         C  0.50626279  0.79099000  0.49767102     0.97200
C17         C  0.60570316  0.73954030  0.10366019     0.93600
Al18       Al  0.50765463  0.70201762  0.08952773     1.55600
O19         O  0.54277888  0.85412693  0.06319768    -0.78200
C20         C  0.41125216  0.68639332  0.06395629     0.97700
C21         C  0.56778718  0.67452931  0.03935991     0.92600
O22         O  0.58717842  0.71824128  0.03937910    -0.83500
O23         O  0.79304228  0.54483245  0.24861689    -0.82900
C24         C  0.77098238  0.46251691  0.13763729     0.96400
O25         O  0.78854982  0.44206509  0.16122919    -0.72100
O26         O  0.84558199  0.47229788  0.20414655    -0.75600
Al27       Al  0.77917469  0.45625415  0.20390028     1.49000
C28         C  0.87273399  0.50890481  0.19935803     0.91700
O29         O  0.78215145  0.61251188  0.17200793    -0.81900
O30         O  0.66526181  0.55253110  0.20633171    -0.75400
Al31       Al  0.78582777  0.57143144  0.20874447     1.90100
O32         O  0.71227585  0.58536626  0.15591016    -0.74500
O33         O  0.66647411  0.46275884  0.18484490    -0.74300
O34         O  0.73505240  0.49301281  0.13921973    -0.80000
O35         O  0.72085888  0.42065574  0.20825129    -0.78200
O36         O  0.75543540  0.51679696  0.19522815    -1.14300
O37         O  0.77146371  0.46619978  0.24664380    -0.73500
C38         C  0.78047662  0.50471565  0.26160864     0.97200
C39         C  0.74377063  0.61912621  0.15676658     0.93600
Al40       Al  0.70084555  0.52222431  0.17340226     1.55600
O41         O  0.85346139  0.55145233  0.19603251    -0.78200
C42         C  0.67764790  0.42583847  0.20044629     0.97700
C43         C  0.67920717  0.58703980  0.22353389     0.92600
O44         O  0.72457635  0.59872921  0.22422460    -0.83500
O45         O  0.59521233  0.24324990  0.28181698    -0.82900
C46         C  0.46729670  0.20658429  0.37641750     0.96400
O47         O  0.50387201  0.23553037  0.37165763    -0.72100
O48         O  0.58933271  0.26294361  0.34362899    -0.75600
Al49       Al  0.52126534  0.26710602  0.33385228     1.49000
C50         C  0.62103985  0.22919261  0.34532892     0.91700
O51         O  0.55148289  0.11159120  0.31019169    -0.81900
O52         O  0.46448348  0.16951640  0.26877923    -0.75400
Al53       Al  0.57063566  0.18049884  0.29872923     1.90100
O54         O  0.47291157  0.12036001  0.32279484    -0.74500
O55         O  0.42767790  0.24206023  0.29680887    -0.74300
O56         O  0.43959167  0.19390291  0.35470617    -0.80000
O57         O  0.45467208  0.29355611  0.32957552    -0.78200
O58         O  0.51626591  0.20930876  0.31479355    -1.14300
O59         O  0.53927986  0.29834993  0.29625241    -0.73500
C60         C  0.57470619  0.28558628  0.27842277     0.97200
C61         C  0.50920210  0.09295458  0.31733149     0.93600
Al62       Al  0.45630049  0.18382100  0.31137142     1.55600
O63         O  0.61075509  0.18660861  0.33517221    -0.78200
C64         C  0.42598331  0.28384859  0.30841589     0.97700
C65         C  0.50145651  0.16846530  0.25051561     0.92600
O66         O  0.54418182  0.17231065  0.26032436    -0.83500
O67         O  0.73713843  0.36158344  0.97525801    -0.82900
C68         C  0.75398452  0.50687842  0.39180900     0.96400
O69         O  0.72258664  0.47336749  0.39756704    -0.72100
O70         O  0.70864271  0.38241432  0.41494354    -0.75600
Al71       Al  0.70090508  0.44490017  0.43413661     1.49000
C72         C  0.74399331  0.35435303  0.40784344     0.91700
O73         O  0.86019599  0.41685796  0.44220127    -0.81900
O74         O  0.80272959  0.49413383  0.99756100    -0.75400
Al75       Al  0.79527353  0.39370673  0.45736935     1.90100
O76         O  0.85166418  0.49626255  0.44259081    -0.74500
O77         O  0.73072187  0.53837591  0.47274853    -0.74300
O78         O  0.77660902  0.52903683  0.41299795    -0.80000
O79         O  0.67131999  0.50511415  0.44889825    -0.78200
O80         O  0.76188297  0.44936232  0.44909342    -1.14300
O81         O  0.67585551  0.41491001  0.46986775    -0.73500
C82         C  0.69280190  0.37574456  0.98069217     0.97200
C83         C  0.87890520  0.45971058  0.43895979     0.93600
Al84       Al  0.78772724  0.50918909  0.45550034     1.55600
O85         O  0.78616675  0.36267038  0.41819113    -0.78200
C86         C  0.68578909  0.53571754  0.46794145     0.97700
C87         C  0.81180446  0.45352532  0.01105537     0.92600
O88         O  0.81038195  0.41349930  0.99670427    -0.83500
O89         O  0.41733936  0.13908236  0.51980909    -0.82900
C90         C  0.50216809  0.20488166  0.12051985     0.96400
O91         O  0.51146385  0.16805129  0.10304745    -0.72100
O92         O  0.48305752  0.10125919  0.06247474    -0.75600
Al93       Al  0.50490928  0.16608090  0.05970064     1.49000
C94         C  0.44720786  0.08114785  0.07593390     0.91700
O95         O  0.35379153  0.19262039  0.09363218    -0.81900
O96         O  0.41470710  0.28223731  0.03959609    -0.75400
Al97       Al  0.39173618  0.16653216  0.05797220     1.90100
O98         O  0.39250103  0.26277691  0.09795704    -0.74500
O99         O  0.50565530  0.28000851  0.04921318    -0.74300
O100        O  0.48673330  0.24613667  0.10989670    -0.80000
O101        O  0.55241255  0.21672416  0.05462901    -0.78200
O102        O  0.44818218  0.19855218  0.06408433    -1.14300
O103        O  0.49534102  0.16488969  0.51648501    -0.73500
C104        C  0.45581027  0.15097546  0.50371324     0.97200
C105        C  0.35505929  0.23669857  0.10362082     0.93600
Al106      Al  0.45033361  0.26190791  0.07363260     1.55600
O107        O  0.40877814  0.10677879  0.08194599    -0.78200
C108        C  0.54662641  0.25998356  0.04584692     0.97700
C109        C  0.37884628  0.26214467  0.02683138     0.92600
O110        O  0.36621690  0.21824873  0.03333543    -0.83500
O111        O  0.15378377  0.42690561  0.26793557    -0.82900
C112        C  0.17864793  0.50559769  0.15724820     0.96400
O113        O  0.14674639  0.51229359  0.17889517    -0.72100
O114        O  0.09900028  0.48483687  0.23055520    -0.75600
Al115      Al  0.16069925  0.51048762  0.22098396     1.49000
C116        C  0.07637097  0.44916474  0.22022936     0.91700
O117        O  0.18522510  0.35950571  0.19175207    -0.81900
O118        O  0.28666763  0.42805483  0.22840438    -0.75400
Al119      Al  0.16939627  0.39807594  0.22849346     1.90100
O120        O  0.24985714  0.40138896  0.17509823    -0.74500
O121        O  0.27469965  0.51927135  0.21614714    -0.74300
O122        O  0.22361005  0.49343400  0.16203217    -0.80000
O123        O  0.20806231  0.56139810  0.21428593    -0.78200
O124        O  0.19507746  0.45535646  0.21509096    -1.14300
O125        O  0.17484955  0.50659274  0.26310867    -0.73500
C126        C  0.16685734  0.46801525  0.27956917     0.97200
C127        C  0.22343085  0.36330664  0.17424238     0.93600
Al128      Al  0.25359340  0.46048925  0.19666379     1.55600
O129        O  0.10165618  0.41120476  0.21253973    -0.78200
C130        C  0.25288070  0.55960133  0.21928359     0.97700
C131        C  0.27449992  0.39190088  0.24548856     0.92600
O132        O  0.23036187  0.37580004  0.24646643    -0.83500
O133        O  0.21507284  0.59863830  0.00074699    -0.82900
C134        C  0.20447806  0.46688443  0.40949444     0.96400
O135        O  0.24602690  0.48168103  0.41948693    -0.72100
O136        O  0.26207278  0.57599433  0.43362904    -0.75600
Al137      Al  0.26186773  0.51693115  0.45632895     1.49000
C138        C  0.23509656  0.61318720  0.43033464     0.91700
O139        O  0.10860649  0.55161152  0.44890926    -0.81900
O140        O  0.16959213  0.46914752  0.01494722    -0.75400
Al141      Al  0.16499812  0.57255991  0.47482757     1.90100
O142        O  0.10211363  0.48314918  0.47361560    -0.74500
O143        O  0.21863067  0.41419885  0.47073248    -0.74300
O144        O  0.16759873  0.45786313  0.42777360    -0.80000
O145        O  0.28116969  0.45980174  0.47843982    -0.78200
O146        O  0.19910565  0.51792850  0.46738059    -1.14300
O147        O  0.28033752  0.55110660  0.49127557    -0.73500
C148        C  0.25861917  0.58505817  0.00687811     0.97200
C149        C  0.08405783  0.51213684  0.45496273     0.93600
Al150      Al  0.16775527  0.46141397  0.47146617     1.55600
O151        O  0.19101147  0.61240195  0.44082171    -0.78200
C152        C  0.26230854  0.41787545  0.47793755     0.97700
C153        C  0.15084178  0.50761612  0.02803578     0.92600
O154        O  0.13622943  0.54446799  0.01224893    -0.83500
O155        O  0.35248132  0.74704973  0.28907181    -0.82900
C156        C  0.50022048  0.76857247  0.36669690     0.96400
O157        O  0.47260228  0.73117468  0.36270083    -0.72100
O158        O  0.38006522  0.71358008  0.35101084    -0.75600
Al159      Al  0.43894303  0.70870851  0.32781232     1.49000
C160        C  0.35166328  0.74713010  0.36014949     0.91700
O161        O  0.40643617  0.86644525  0.32381870    -0.81900
O162        O  0.48078723  0.80227360  0.25990775    -0.75400
Al163      Al  0.38390257  0.80359550  0.30717766     1.90100
O164        O  0.48314258  0.86299799  0.30823117    -0.74500
O165        O  0.53607865  0.74209697  0.29060452    -0.74300
O166        O  0.51723499  0.79498200  0.34435331    -0.80000
O167        O  0.49628834  0.68012078  0.30976114    -0.78200
O168        O  0.44046361  0.77005863  0.31226953    -1.14300
O169        O  0.40471939  0.68447039  0.29393926    -0.73500
C170        C  0.36666428  0.70335492  0.28250061     0.97200
C171        C  0.44810316  0.88707952  0.31936657     0.93600
Al172      Al  0.49855562  0.79754761  0.30192480     1.55600
O173        O  0.35390377  0.78917214  0.34740066    -0.78200
C174        C  0.53241968  0.69676999  0.29478508     0.97700
C175        C  0.43976288  0.81550020  0.24891366     0.92600
O176        O  0.40225427  0.82309266  0.26623451    -0.83500
C177        C  0.23713200  0.69222308  0.39670670    -0.03000
C178        C  0.25972252  0.65894134  0.41720026     0.06700
C179        C  0.30893118  0.66935900  0.42565842    -0.03100
C180        C  0.33701020  0.70566201  0.41006832    -0.03100
C181        C  0.31700382  0.73332932  0.38610899     0.06800
C182        C  0.26550088  0.73084537  0.38227194    -0.03300
Br183      Br  0.23486976  0.77976636  0.35687285    -0.01800
Br184      Br  0.16966947  0.68214454  0.38575536    -0.01900
Br185      Br  0.40499991  0.71468917  0.42041958    -0.01900
Br186      Br  0.34107413  0.63409586  0.45812820    -0.01900
C187        C  0.35307402  0.65406419  0.23478496    -0.03000
C188        C  0.33566670  0.67210429  0.26331262     0.06700
C189        C  0.28857685  0.65815238  0.27458698    -0.03100
C190        C  0.25856996  0.62731620  0.25758928    -0.03100
C191        C  0.27860907  0.60331663  0.23140973     0.06800
C192        C  0.32563418  0.61784479  0.21955603    -0.03300
Br193      Br  0.35146697  0.58972789  0.18193041    -0.01800
Br194      Br  0.41303204  0.68025026  0.21609493    -0.01900
Br195      Br  0.19086374  0.61798752  0.27178975    -0.01900
Br196      Br  0.26742403  0.67529593  0.31536139    -0.01900
C197        C  0.21958132  0.49036872  0.32313981    -0.03000
C198        C  0.17554911  0.46926764  0.31275656     0.06700
C199        C  0.14468310  0.44259297  0.33357174    -0.03100
C200        C  0.15845658  0.43622698  0.36406965    -0.03100
C201        C  0.19832150  0.46361961  0.37566371     0.06800
C202        C  0.22906678  0.49094494  0.35455538    -0.03300
Br203      Br  0.28492212  0.53019496  0.36670031    -0.01800
Br204      Br  0.27114759  0.51143848  0.29424192    -0.01900
Br205      Br  0.12752084  0.38359251  0.38766495    -0.01900
Br206      Br  0.08344101  0.41374749  0.32065537    -0.01900
C207        C  0.15884813  0.55520443  0.07763525    -0.03000
C208        C  0.14712070  0.51073070  0.06208060     0.06700
C209        C  0.13469261  0.46841293  0.07970754    -0.03100
C210        C  0.14128736  0.46842409  0.11147397    -0.03100
C211        C  0.16276328  0.50954134  0.12548848     0.06800
C212        C  0.16924394  0.55371241  0.10895820    -0.03300
Br213      Br  0.19153139  0.61211444  0.12972508    -0.01800
Br214      Br  0.15670241  0.61939757  0.05834447    -0.01900
Br215      Br  0.12227245  0.41152950  0.13567430    -0.01900
Br216      Br  0.10475340  0.41197661  0.06089042    -0.01900
C217        C  0.29621072  0.29307407  0.01139706    -0.03000
C218        C  0.34819550  0.29318964  0.00683252     0.06700
C219        C  0.36941725  0.32971438  0.48829283    -0.03100
C220        C  0.34120119  0.36921292  0.47722747    -0.03100
C221        C  0.29066909  0.37308390  0.48594162     0.06800
C222        C  0.26852198  0.33417159  0.00206698    -0.03300
Br223      Br  0.19972491  0.33778349  0.01539388    -0.01800
Br224      Br  0.26246089  0.24029196  0.03393207    -0.01900
Br225      Br  0.37230517  0.41723101  0.44974387    -0.01900
Br226      Br  0.43909082  0.32698276  0.47790104    -0.01900
C227        C  0.25338723  0.27527108  0.16327490    -0.03000
C228        C  0.24173908  0.32363246  0.15276626     0.06700
C229        C  0.26236505  0.33926942  0.12432267    -0.03100
C230        C  0.29881684  0.31102153  0.10896311    -0.03100
C231        C  0.31187658  0.26280867  0.11944103     0.06800
C232        C  0.28724603  0.24456791  0.14628138    -0.03300
Br233      Br  0.30505374  0.18054117  0.16201848    -0.01800
Br234      Br  0.22744594  0.25317796  0.20257817    -0.01900
Br235      Br  0.33407499  0.34413629  0.07563429    -0.01900
Br236      Br  0.24443578  0.40285590  0.10719545    -0.01900
C237        C  0.96888282  0.43312561  0.43861087    -0.03000
C238        C  0.93348608  0.46990376  0.43302221     0.06700
C239        C  0.95115673  0.51903455  0.42649359    -0.03100
C240        C  0.00117888  0.53224919  0.43097659    -0.03100
C241        C  0.03448651  0.49721048  0.44252514     0.06800
C242        C  0.01819005  0.44648098  0.44443930    -0.03300
Br243      Br  0.06062079  0.39222355  0.45612605    -0.01800
Br244      Br  0.95064093  0.36362065  0.43825309    -0.01900
Br245      Br  0.02284651  0.59924171  0.42232221    -0.01900
Br246      Br  0.90827080  0.56983234  0.41056738    -0.01900
C247        C  0.62221974  0.31671543  0.48190753    -0.03000
C248        C  0.65783818  0.34393422  0.99787518     0.06700
C249        C  0.65570750  0.34394199  0.03004024    -0.03100
C250        C  0.62068849  0.31445251  0.04612843    -0.03100
C251        C  0.58682633  0.28644341  0.02983347     0.06800
C252        C  0.58820723  0.28738064  0.99772086    -0.03300
Br253      Br  0.54190181  0.24845376  0.47541088    -0.01800
Br254      Br  0.61729316  0.32362450  0.43815505    -0.01900
Br255      Br  0.61787637  0.31341195  0.09026229    -0.01900
Br256      Br  0.69520487  0.38975098  0.05171544    -0.01900
C257        C  0.45369666  0.02332562  0.30219212    -0.03000
C258        C  0.49704898  0.03867389  0.31722559     0.06700
C259        C  0.52207403  0.00346582  0.33478596    -0.03100
C260        C  0.50259645  0.95496932  0.33862071    -0.03100
C261        C  0.45827606  0.94056688  0.32443705     0.06800
C262        C  0.43351743  0.97565026  0.30682067    -0.03300
Br263      Br  0.37346839  0.95720728  0.28692421    -0.01800
Br264      Br  0.42472384  0.06446444  0.27133028    -0.01900
Br265      Br  0.53683984  0.90831406  0.36387589    -0.01900
Br266      Br  0.58451101  0.02028627  0.35181203    -0.01900
C267        C  0.30719369  0.35389765  0.29438760    -0.03000
C268        C  0.31409292  0.36720676  0.26315897     0.06700
C269        C  0.36052972  0.35789361  0.24849876    -0.03100
C270        C  0.39867655  0.33503062  0.26454690    -0.03100
C271        C  0.39127351  0.32043720  0.29537055     0.06800
C272        C  0.34608908  0.33185692  0.31053191    -0.03300
Br273      Br  0.33747319  0.31713665  0.35340966    -0.01800
Br274      Br  0.24445927  0.36391680  0.31525507    -0.01900
Br275      Br  0.46152146  0.32317245  0.24387765    -0.01900
Br276      Br  0.37120312  0.37143641  0.20529510    -0.01900
C277        C  0.72422348  0.31788847  0.35728317    -0.03000
C278        C  0.73269596  0.31079268  0.38851242     0.06700
C279        C  0.71668069  0.26596801  0.40253358    -0.03100
C280        C  0.68447830  0.23365687  0.38720060    -0.03100
C281        C  0.67064491  0.24427322  0.35699570     0.06800
C282        C  0.69630543  0.28304484  0.34127762    -0.03300
Br283      Br  0.69474350  0.28798876  0.29757170    -0.01800
Br284      Br  0.74681238  0.37785290  0.33713158    -0.01900
Br285      Br  0.65857120  0.17629241  0.40809049    -0.01900
Br286      Br  0.73496898  0.25138028  0.44384362    -0.01900
C287        C  0.53989063  0.16591814  0.16687519    -0.03000
C288        C  0.50437414  0.19772192  0.15434088     0.06700
C289        C  0.46566208  0.21579025  0.17383026    -0.03100
C290        C  0.45914017  0.19775859  0.20386865    -0.03100
C291        C  0.49601450  0.16830270  0.21682394     0.06800
C292        C  0.53505314  0.15029148  0.19767274    -0.03300
Br293      Br  0.58023285  0.10134033  0.21303340    -0.01800
Br294      Br  0.59984193  0.15097283  0.14368114    -0.01900
Br295      Br  0.39809314  0.21274834  0.22622974    -0.01900
Br296      Br  0.42470487  0.27049830  0.16235055    -0.01900
C297        C  0.41539341  0.19040940  0.42472525    -0.03000
C298        C  0.45958580  0.18439742  0.40749017     0.06700
C299        C  0.49707237  0.15481045  0.41971469    -0.03100
C300        C  0.49541958  0.14101998  0.45090828    -0.03100
C301        C  0.45337924  0.15234735  0.46947640     0.06800
C302        C  0.41110297  0.17145353  0.45488278    -0.03300
Br303      Br  0.34597760  0.16828919  0.47386846    -0.01800
Br304      Br  0.36103247  0.22535020  0.40743816    -0.01900
Br305      Br  0.55008748  0.10521073  0.46768097    -0.01900
Br306      Br  0.54723969  0.12839377  0.39259572    -0.01900
C307        C  0.94765526  0.45705560  0.18526692    -0.03000
C308        C  0.92718455  0.49882250  0.20071438     0.06700
C309        C  0.95368024  0.51903302  0.22475019    -0.03100
C310        C  0.99844305  0.49719903  0.23380949    -0.03100
C311        C  0.02140365  0.45806245  0.21667837     0.06800
C312        C  0.99388253  0.43653081  0.19337694    -0.03300
Br313      Br  0.01578918  0.37558898  0.17505679    -0.01800
Br314      Br  0.91233271  0.42805424  0.15223993    -0.01900
Br315      Br  0.02411910  0.51741131  0.27267800    -0.01900
Br316      Br  0.92744389  0.57569212  0.24655555    -0.01900
C317        C  0.64955448  0.33873844  0.20968839    -0.03000
C318        C  0.64042641  0.38971613  0.21254856     0.06700
C319        C  0.60333664  0.40561998  0.23341147    -0.03100
C320        C  0.58246943  0.37255170  0.25533709    -0.03100
C321        C  0.59397103  0.32101424  0.25403194     0.06800
C322        C  0.62482455  0.30433542  0.22921151    -0.03300
Br323      Br  0.63432453  0.23486347  0.22059018    -0.01800
Br324      Br  0.69643239  0.31637784  0.17866841    -0.01900
Br325      Br  0.54201266  0.40128235  0.28801646    -0.01900
Br326      Br  0.58191415  0.47343163  0.23276795    -0.01900
C327        C  0.72872123  0.51720349  0.30870072    -0.03000
C328        C  0.77456712  0.50456262  0.29499854     0.06700
C329        C  0.81510641  0.49534255  0.31317698    -0.03100
C330        C  0.80952562  0.49864451  0.34516166    -0.03100
C331        C  0.76484958  0.51630660  0.35896382     0.06800
C332        C  0.72467034  0.52636059  0.34019276    -0.03300
Br333      Br  0.66266557  0.54925275  0.35789480    -0.01800
Br334      Br  0.67012716  0.51445108  0.28530826    -0.01900
Br335      Br  0.85976983  0.46933862  0.36897085    -0.01900
Br336      Br  0.87611875  0.47205756  0.29418690    -0.01900
C337        C  0.81863708  0.49618579  0.09286171    -0.03000
C338        C  0.79592996  0.45525567  0.10750734     0.06700
C339        C  0.79793826  0.40922003  0.09297030    -0.03100
C340        C  0.81291360  0.40691782  0.06181391    -0.03100
C341        C  0.81995614  0.45167818  0.04472895     0.06800
C342        C  0.82889991  0.49538089  0.06115711    -0.03300
Br343      Br  0.85798164  0.55277677  0.04114805    -0.01800
Br344      Br  0.84092169  0.55001769  0.11739295    -0.01900
Br345      Br  0.82369685  0.34239389  0.04388464    -0.01900
Br346      Br  0.77830168  0.35015874  0.11507904    -0.01900
C347        C  0.55554967  0.62971381  0.25824937    -0.03000
C348        C  0.56981290  0.66352017  0.28049546     0.06700
C349        C  0.62040573  0.67020028  0.28560705    -0.03100
C350        C  0.65617806  0.64271999  0.26881970    -0.03100
C351        C  0.64191342  0.61411530  0.24326955     0.06800
C352        C  0.59081803  0.61084350  0.23723898    -0.03300
Br353      Br  0.56722252  0.58959816  0.19817764    -0.01800
Br354      Br  0.48837026  0.60678998  0.25716679    -0.01900
Br355      Br  0.72359251  0.64520825  0.28225927    -0.01900
Br356      Br  0.64054822  0.71559533  0.31664004    -0.01900
C357        C  0.51542146  0.95998108  0.08497208    -0.03000
C358        C  0.48480522  0.92637708  0.06984784     0.06700
C359        C  0.43659336  0.94400407  0.06145414    -0.03100
C360        C  0.42158237  0.99353014  0.06679755    -0.03100
C361        C  0.45277098  0.02658187  0.08129585     0.06800
C362        C  0.49843406  0.00842778  0.09177455    -0.03300
Br363      Br  0.53768732  0.05034712  0.11650645    -0.01800
Br364      Br  0.58160439  0.94172424  0.09563907    -0.01900
Br365      Br  0.35903526  0.01770177  0.55193390    -0.01900
Br366      Br  0.38878432  0.90358395  0.54056140    -0.01900
C367        C  0.32312684  0.68657042  0.04899918    -0.03000
C368        C  0.36385119  0.65971381  0.06002937     0.06700
C369        C  0.36079077  0.60775156  0.06180766    -0.03100
C370        C  0.32175184  0.58309326  0.04765224    -0.03100
C371        C  0.28708128  0.61031373  0.03066163     0.06800
C372        C  0.28605410  0.66235372  0.03310046    -0.03300
Br373      Br  0.23879724  0.70162500  0.51156346    -0.01800
Br374      Br  0.31642436  0.75594978  0.55678439    -0.01900
Br375      Br  0.31654010  0.51187236  0.05091993    -0.01900
Br376      Br  0.41089506  0.57017243  0.08199419    -0.01900
C377        C  0.61049109  0.59229726  0.47322010    -0.03000
C378        C  0.65066811  0.56722677  0.48635250     0.06700
C379        C  0.65780855  0.57226866  0.01805717    -0.03100
C380        C  0.62825171  0.60487962  0.03565082    -0.03100
C381        C  0.59279030  0.63461411  0.02162734     0.06800
C382        C  0.58063437  0.62464282  0.49120295    -0.03300
Br383      Br  0.52036805  0.65138938  0.47551666    -0.01800
Br384      Br  0.59672712  0.58410842  0.43067841    -0.01900
Br385      Br  0.63220462  0.60447017  0.07959657    -0.01900
Br386      Br  0.70486172  0.53114939  0.03870202    -0.01900
C387        C  0.72776982  0.67566167  0.11155771    -0.03000
C388        C  0.72901781  0.66822420  0.14349018     0.06700
C389        C  0.69845759  0.69900989  0.16204401    -0.03100
C390        C  0.65857231  0.72510787  0.14944676    -0.03100
C391        C  0.65427263  0.72823940  0.11751444     0.06800
C392        C  0.69295794  0.70846325  0.09889305    -0.03300
Br393      Br  0.69643104  0.72325768  0.05574402    -0.01800
Br394      Br  0.77113365  0.63900042  0.08475848    -0.01900
Br395      Br  0.60833025  0.75329896  0.17610224    -0.01900
Br396      Br  0.71140952  0.70621968  0.20459575    -0.01900
C397        C  0.47372847  0.81757292  0.44657743    -0.03000
C398        C  0.50999169  0.79303727  0.46341634     0.06700
C399        C  0.54962592  0.76939600  0.44696767    -0.03100
C400        C  0.54707562  0.76210408  0.41514260    -0.03100
C401        C  0.50870246  0.78333122  0.39876754     0.06800
C402        C  0.47371334  0.81357111  0.41445321    -0.03300
Br403      Br  0.42227608  0.84612947  0.39272429    -0.01800
Br404      Br  0.42501448  0.85873301  0.46707009    -0.01900
Br405      Br  0.59434126  0.72022420  0.39414195    -0.01900
Br406      Br  0.60846428  0.74677465  0.46668955    -0.01900
C407        C  0.47822375  0.82287138  0.16547368    -0.03000
C408        C  0.43977313  0.79609444  0.15224305     0.06700
C409        C  0.39507577  0.78941516  0.16899097    -0.03100
C410        C  0.39199717  0.80260974  0.20025672    -0.03100
C411        C  0.43499949  0.81938415  0.21504103     0.06800
C412        C  0.47607474  0.83431818  0.19672578    -0.03300
Br413      Br  0.52828719  0.87272447  0.21408316    -0.01800
Br414      Br  0.53406822  0.84401663  0.14059397    -0.01900
Br415      Br  0.32899025  0.79638682  0.22188149    -0.01900
Br416      Br  0.33973578  0.75898599  0.14976788    -0.01900
O417        O  0.54581207  0.79358046  0.01211777    -0.82900
C418        C  0.45031372  0.76992108  0.62311493     0.96400
O419        O  0.42562447  0.77846257  0.59899474    -0.72100
O420        O  0.46288154  0.84390679  0.56265588    -0.75600
Al421      Al  0.44889977  0.77941114  0.55548759     1.49000
C422        C  0.49854830  0.87220274  0.56491673     0.91700
O423        O  0.59595002  0.78050538  0.59107872    -0.81900
O424        O  0.52906760  0.66329828  0.55574825    -0.75400
Al425      Al  0.56283772  0.78426272  0.55268962     1.90100
O426        O  0.57436958  0.70519395  0.60211646    -0.74500
O427        O  0.43913089  0.67881630  0.58583999    -0.74300
O428        O  0.48708213  0.74068419  0.62279426    -0.80000
O429        O  0.42292855  0.71826957  0.54468534    -0.78200
O430        O  0.50666182  0.75609821  0.56568005    -1.14300
O431        O  0.46590957  0.78524511  0.01204196    -0.73500
C432        C  0.50692406  0.79105489  0.99765195     0.97200
C433        C  0.60528066  0.73960817  0.60360734     0.93600
Al434      Al  0.50731381  0.70190107  0.58953941     1.55600
O435        O  0.54229495  0.85398475  0.56307495    -0.78200
C436        C  0.41098225  0.68610785  0.56398465     0.97700
C437        C  0.56743896  0.67432243  0.53938478     0.92600
O438        O  0.58673683  0.71808063  0.53932636    -0.83500
O439        O  0.79204108  0.54586562  0.74887359    -0.82900
C440        C  0.77080682  0.46331988  0.63776785     0.96400
O441        O  0.78811461  0.44251405  0.66132659    -0.72100
O442        O  0.84562878  0.47304308  0.70383588    -0.75600
Al443      Al  0.77935155  0.45681518  0.70404992     1.49000
C444        C  0.87272132  0.50983899  0.69966913     0.91700
O445        O  0.78197446  0.61272467  0.67193092    -0.81900
O446        O  0.66485202  0.55216776  0.70674741    -0.75400
Al447      Al  0.78536864  0.57215366  0.70893940     1.90100
O448        O  0.71156361  0.58590488  0.65646092    -0.74500
O449        O  0.66675253  0.46251436  0.68477344    -0.74300
O450        O  0.73505059  0.49398569  0.63939588    -0.80000
O451        O  0.72102433  0.42132021  0.70888128    -0.78200
O452        O  0.75532233  0.51727942  0.69546419    -1.14300
O453        O  0.77252200  0.46668924  0.74682930    -0.73500
C454        C  0.78072554  0.50537181  0.76181580     0.97200
C455        C  0.74328735  0.61949086  0.65697644     0.93600
Al456      Al  0.70063584  0.52247965  0.67367236     1.55600
O457        O  0.85338465  0.55244612  0.69678964    -0.78200
C458        C  0.67792602  0.42600234  0.70074738     0.97700
C459        C  0.67857861  0.58718827  0.72362286     0.92600
O460        O  0.72383913  0.59942415  0.72403455    -0.83500
O461        O  0.59514114  0.24316099  0.78188551    -0.82900
C462        C  0.46714621  0.20675240  0.87645862     0.96400
O463        O  0.50374418  0.23562639  0.87164774    -0.72100
O464        O  0.58914267  0.26280649  0.84361891    -0.75600
Al465      Al  0.52110348  0.26707084  0.83381170     1.49000
C466        C  0.62080354  0.22901084  0.84534489     0.91700
O467        O  0.55104090  0.11148949  0.80999608    -0.81900
O468        O  0.46424654  0.16888765  0.76899229    -0.75400
Al469      Al  0.57038246  0.18043749  0.79869862     1.90100
O470        O  0.47272113  0.12036655  0.82325616    -0.74500
O471        O  0.42762599  0.24179883  0.79668540    -0.74300
O472        O  0.43929752  0.19421744  0.85479281    -0.80000
O473        O  0.45451181  0.29344993  0.82941200    -0.78200
O474        O  0.51607147  0.20923149  0.81482328    -1.14300
O475        O  0.53913785  0.29821535  0.79620310    -0.73500
C476        C  0.57467154  0.28546450  0.77844211     0.97200
C477        C  0.50883083  0.09290992  0.81740292     0.93600
Al478      Al  0.45610188  0.18368545  0.81151428     1.55600
O479        O  0.61050378  0.18641822  0.83517073    -0.78200
C480        C  0.42596075  0.28366430  0.80818537     0.97700
C481        C  0.50109250  0.16821253  0.75062614     0.92600
O482        O  0.54385545  0.17253868  0.76030175    -0.83500
O483        O  0.73672081  0.36106797  0.47533005    -0.82900
C484        C  0.75516528  0.50752687  0.89193076     0.96400
O485        O  0.72321864  0.47447184  0.89760002    -0.72100
O486        O  0.70872351  0.38322409  0.91450147    -0.75600
Al487      Al  0.70130558  0.44553125  0.93397115     1.49000
C488        C  0.74382256  0.35481993  0.90749412     0.91700
O489        O  0.86029248  0.41685121  0.94132783    -0.81900
O490        O  0.80341455  0.49427265  0.49722301    -0.75400
Al491      Al  0.79562970  0.39389567  0.95699309     1.90100
O492        O  0.85250301  0.49620913  0.94367384    -0.74500
O493        O  0.73123973  0.53920434  0.97237335    -0.74300
O494        O  0.77824141  0.52915271  0.91313885    -0.80000
O495        O  0.67166369  0.50548237  0.94896357    -0.78200
O496        O  0.76226481  0.44968168  0.94901361    -1.14300
O497        O  0.67609573  0.41518185  0.96951464    -0.73500
C498        C  0.69245644  0.37530739  0.48088976     0.97200
C499        C  0.87940729  0.45966318  0.93920298     0.93600
Al500      Al  0.78826785  0.50936059  0.95573963     1.55600
O501        O  0.78597740  0.36280172  0.91791147    -0.78200
C502        C  0.68628292  0.53641979  0.96772988     0.97700
C503        C  0.81154087  0.45379303  0.51110534     0.92600
O504        O  0.80915309  0.41349820  0.49712130    -0.83500
O505        O  0.41801503  0.13904164  0.01979087    -0.82900
C506        C  0.50114853  0.20471362  0.62066719     0.96400
O507        O  0.51066629  0.16799898  0.60313747    -0.72100
O508        O  0.48258625  0.10123368  0.56244892    -0.75600
Al509      Al  0.50421057  0.16610919  0.55978210     1.49000
C510        C  0.44683672  0.08102202  0.57593847     0.91700
O511        O  0.35318759  0.19222807  0.59385154    -0.81900
O512        O  0.41397786  0.28197405  0.53954150    -0.75400
Al513      Al  0.39106895  0.16630520  0.55810608     1.90100
O514        O  0.39155617  0.26262180  0.59784891    -0.74500
O515        O  0.50488286  0.28002441  0.54940361    -0.74300
O516        O  0.48563358  0.24599089  0.61009141    -0.80000
O517        O  0.55166802  0.21676760  0.55477818    -0.78200
O518        O  0.44744188  0.19844673  0.56416992    -1.14300
O519        O  0.49601798  0.16476394  0.01639524    -0.73500
C520        C  0.45645866  0.15084430  0.00366285     0.97200
C521        C  0.35423751  0.23645307  0.60362416     0.93600
Al522      Al  0.44947140  0.26178699  0.57369826     1.55600
O523        O  0.40835419  0.10654098  0.58199496    -0.78200
C524        C  0.54585243  0.26002301  0.54601024     0.97700
C525        C  0.37792449  0.26183991  0.52698168     0.92600
O526        O  0.36529403  0.21800042  0.53362289    -0.83500
O527        O  0.15397068  0.42689015  0.76798486    -0.82900
C528        C  0.17800978  0.50559528  0.65729295     0.96400
O529        O  0.14618214  0.51217134  0.67899726    -0.72100
O530        O  0.09872113  0.48475201  0.73081939    -0.75600
Al531      Al  0.16042860  0.51043157  0.72102831     1.49000
C532        C  0.07608052  0.44909379  0.72043753     0.91700
O533        O  0.18479081  0.35955670  0.69171176    -0.81900
O534        O  0.28661118  0.42804887  0.72808994    -0.75400
Al535      Al  0.16926333  0.39807321  0.72848477     1.90100
O536        O  0.24934981  0.40139046  0.67487506    -0.74500
O537        O  0.27446538  0.51934455  0.71591957    -0.74300
O538        O  0.22301870  0.49348552  0.66196436    -0.80000
O539        O  0.20775331  0.56134815  0.71410484    -0.78200
O540        O  0.19484004  0.45534442  0.71504064    -1.14300
O541        O  0.17491948  0.50658734  0.76311890    -0.73500
C542        C  0.16716137  0.46797437  0.77960368     0.97200
C543        C  0.22286753  0.36332334  0.67409982     0.93600
Al544      Al  0.25325596  0.46051098  0.69646629     1.55600
O545        O  0.10137704  0.41119204  0.71267342    -0.78200
C546        C  0.25260699  0.55967238  0.71902700     0.97700
C547        C  0.27456528  0.39188289  0.74519183     0.92600
O548        O  0.23041222  0.37579209  0.74627128    -0.83500
O549        O  0.21514355  0.59823604  0.50064090    -0.82900
C550        C  0.20589855  0.46772626  0.90931954     0.96400
O551        O  0.24720608  0.48303647  0.91936387    -0.72100
O552        O  0.26249322  0.57718569  0.93411844    -0.75600
Al553      Al  0.26254396  0.51783865  0.95645464     1.49000
C554        C  0.23511942  0.61400982  0.93059292     0.91700
O555        O  0.10907823  0.55169111  0.94874528    -0.81900
O556        O  0.16907924  0.46912435  0.51514967    -0.75400
Al557      Al  0.16516619  0.57273888  0.97480745     1.90100
O558        O  0.10284500  0.48288044  0.97312753    -0.74500
O559        O  0.21976219  0.41471128  0.97061484    -0.74300
O560        O  0.16897443  0.45815736  0.92750056    -0.80000
O561        O  0.28216244  0.46049883  0.97827704    -0.78200
O562        O  0.19967462  0.51833591  0.96732444    -1.14300
O563        O  0.28046947  0.55164233  0.99164254    -0.73500
C564        C  0.25873245  0.58458467  0.50658740     0.97200
C565        C  0.08475056  0.51202926  0.95456251     0.93600
Al566      Al  0.16867296  0.46162007  0.97121958     1.55600
O567        O  0.19094489  0.61277905  0.94086615    -0.78200
C568        C  0.26343160  0.41851189  0.97779937     0.97700
C569        C  0.15049163  0.50772934  0.52817845     0.92600
O570        O  0.13606250  0.54461842  0.51235452    -0.83500
O571        O  0.35200499  0.74726231  0.78896247    -0.82900
C572        C  0.50013324  0.76846606  0.86671794     0.96400
O573        O  0.47242742  0.73111284  0.86276209    -0.72100
O574        O  0.37966863  0.71405547  0.85131711    -0.75600
Al575      Al  0.43833630  0.70875369  0.82796682     1.49000
C576        C  0.35107615  0.74762618  0.86019260     0.91700
O577        O  0.40599482  0.86647901  0.82380773    -0.81900
O578        O  0.48039611  0.80202319  0.75993567    -0.75400
Al579      Al  0.38344198  0.80372519  0.80711872     1.90100
O580        O  0.48267600  0.86299129  0.80816021    -0.74500
O581        O  0.53553522  0.74197983  0.79079890    -0.74300
O582        O  0.51682789  0.79503734  0.84436951    -0.80000
O583        O  0.49543164  0.68002569  0.80972617    -0.78200
O584        O  0.43994687  0.77008093  0.81233757    -1.14300
O585        O  0.40378663  0.68443362  0.79422625    -0.73500
C586        C  0.36598780  0.70344991  0.78256367     0.97200
C587        C  0.44765033  0.88709192  0.81930895     0.93600
Al588      Al  0.49809238  0.79748674  0.80196755     1.55600
O589        O  0.35319708  0.78947808  0.84723212    -0.78200
C590        C  0.53170490  0.69664958  0.79487589     0.97700
C591        C  0.43943437  0.81535790  0.74891964     0.92600
O592        O  0.40196463  0.82319083  0.76621898    -0.83500
C593        C  0.23674064  0.69245637  0.89651449    -0.03000
C594        C  0.25932320  0.65987490  0.91741531     0.06700
C595        C  0.30825056  0.67093022  0.92610450    -0.03100
C596        C  0.33627522  0.70703957  0.91033767    -0.03100
C597        C  0.31632006  0.73414530  0.88613080     0.06800
C598        C  0.26489562  0.73121554  0.88209172    -0.03300
Br599      Br  0.23404755  0.77992313  0.85663123    -0.01800
Br600      Br  0.16979827  0.68106331  0.88491236    -0.01900
Br601      Br  0.40419837  0.71629062  0.92070551    -0.01900
Br602      Br  0.34015429  0.63659493  0.95902607    -0.01900
C603        C  0.35294276  0.65391440  0.73485668    -0.03000
C604        C  0.33511269  0.67229581  0.76320735     0.06700
C605        C  0.28766013  0.65887305  0.77410461    -0.03100
C606        C  0.25784144  0.62796856  0.75701378    -0.03100
C607        C  0.27827515  0.60351816  0.73109948     0.06800
C608        C  0.32555720  0.61776721  0.71951069    -0.03300
Br609      Br  0.35177648  0.58948934  0.68202988    -0.01800
Br610      Br  0.41338587  0.67965128  0.71653500    -0.01900
Br611      Br  0.18987530  0.61898242  0.77082652    -0.01900
Br612      Br  0.26562897  0.67693118  0.81453931    -0.01900
C613        C  0.21955900  0.49200096  0.82306517    -0.03000
C614        C  0.17627359  0.46921004  0.81277519     0.06700
C615        C  0.14686464  0.44104874  0.83368928    -0.03100
C616        C  0.16166507  0.43478231  0.86398154    -0.03100
C617        C  0.19988254  0.46430862  0.87553706     0.06800
C618        C  0.22896506  0.49332668  0.85446563    -0.03300
Br619      Br  0.28210090  0.53605159  0.86669213    -0.01800
Br620      Br  0.27067416  0.51414411  0.79421480    -0.01900
Br621      Br  0.13585752  0.37906515  0.88710427    -0.01900
Br622      Br  0.08648020  0.40986440  0.82133430    -0.01900
C623        C  0.15846868  0.55534408  0.57774674    -0.03000
C624        C  0.14663081  0.51090626  0.56219271     0.06700
C625        C  0.13394039  0.46864451  0.57979059    -0.03100
C626        C  0.14059172  0.46855655  0.61153848    -0.03100
C627        C  0.16202079  0.50965195  0.62558725     0.06800
C628        C  0.16859747  0.55384245  0.60910017    -0.03300
Br629      Br  0.19076214  0.61220996  0.62995990    -0.01800
Br630      Br  0.15707353  0.61948864  0.55836316    -0.01900
Br631      Br  0.12198388  0.41144685  0.63563014    -0.01900
Br632      Br  0.10360568  0.41243886  0.56095211    -0.01900
C633        C  0.29511631  0.29278972  0.51191719    -0.03000
C634        C  0.34705052  0.29272772  0.50705226     0.06700
C635        C  0.37073344  0.33055701  0.98842768    -0.03100
C636        C  0.34255959  0.37012568  0.97738606    -0.03100
C637        C  0.29188991  0.37374975  0.98582295     0.06800
C638        C  0.26738723  0.33378440  0.50247903    -0.03300
Br639      Br  0.19870766  0.33770890  0.51599960    -0.01800
Br640      Br  0.26157023  0.24048605  0.53500860    -0.01900
Br641      Br  0.37394209  0.41858764  0.95032447    -0.01900
Br642      Br  0.44061449  0.32831777  0.97852978    -0.01900
C643        C  0.25249623  0.27519401  0.66315582    -0.03000
C644        C  0.24095949  0.32356897  0.65262287     0.06700
C645        C  0.26155550  0.33910785  0.62415896    -0.03100
C646        C  0.29806651  0.31085800  0.60887003    -0.03100
C647        C  0.31102979  0.26261058  0.61937079     0.06800
C648        C  0.28636280  0.24443928  0.64621408    -0.03300
Br649      Br  0.30433331  0.18056407  0.66212039    -0.01800
Br650      Br  0.22631332  0.25310217  0.70239974    -0.01900
Br651      Br  0.33366375  0.34418830  0.57573853    -0.01900
Br652      Br  0.24350681  0.40256836  0.60690596    -0.01900
C653        C  0.96942320  0.43308323  0.93946787    -0.03000
C654        C  0.93400875  0.46973182  0.93346887     0.06700
C655        C  0.95159240  0.51879579  0.92657992    -0.03100
C656        C  0.00159539  0.53220469  0.93092152    -0.03100
C657        C  0.03522979  0.49716997  0.94206761     0.06800
C658        C  0.01917903  0.44643369  0.94390767    -0.03300
Br659      Br  0.06328949  0.39218620  0.95285776    -0.01800
Br660      Br  0.95051809  0.36382417  0.94262425    -0.01900
Br661      Br  0.02294235  0.59932642  0.92237187    -0.01900
Br662      Br  0.90845871  0.56936325  0.91063104    -0.01900
C663        C  0.62260270  0.31713370  0.98175285    -0.03000
C664        C  0.65747904  0.34346423  0.49804353     0.06700
C665        C  0.65530019  0.34350216  0.53021069    -0.03100
C666        C  0.61997055  0.31438027  0.54629467    -0.03100
C667        C  0.58603938  0.28648473  0.52999413     0.06800
C668        C  0.58755895  0.28726604  0.49787904    -0.03300
Br669      Br  0.54278820  0.24827523  0.97525243    -0.01800
Br670      Br  0.61718770  0.32455742  0.93805934    -0.01900
Br671      Br  0.61671502  0.31380651  0.59042935    -0.01900
Br672      Br  0.69553286  0.38858474  0.55191598    -0.01900
C673        C  0.45311578  0.02339446  0.80226658    -0.03000
C674        C  0.49657150  0.03866444  0.81722988     0.06700
C675        C  0.52161418  0.00341483  0.83474254    -0.03100
C676        C  0.50214371  0.95492969  0.83855350    -0.03100
C677        C  0.45781928  0.94056059  0.82438109     0.06800
C678        C  0.43298510  0.97568259  0.80683568    -0.03300
Br679      Br  0.37288264  0.95725821  0.78697480    -0.01800
Br680      Br  0.42382481  0.06468578  0.77161590    -0.01900
Br681      Br  0.53640151  0.90824861  0.86377488    -0.01900
Br682      Br  0.58402348  0.02019678  0.85180522    -0.01900
C683        C  0.30729908  0.35373508  0.79402743    -0.03000
C684        C  0.31425232  0.36721566  0.76282995     0.06700
C685        C  0.36075090  0.35798125  0.74819981    -0.03100
C686        C  0.39876537  0.33477417  0.76421301    -0.03100
C687        C  0.39130212  0.32018326  0.79503993     0.06800
C688        C  0.34612445  0.33161364  0.81017772    -0.03300
Br689      Br  0.33734499  0.31653548  0.85301307    -0.01800
Br690      Br  0.24459766  0.36370246  0.81487925    -0.01900
Br691      Br  0.46143114  0.32225832  0.74346509    -0.01900
Br692      Br  0.37178715  0.37229216  0.70511182    -0.01900
C693        C  0.72406297  0.31769194  0.85703191    -0.03000
C694        C  0.73227792  0.31109263  0.88833445     0.06700
C695        C  0.71616686  0.26646881  0.90255848    -0.03100
C696        C  0.68388871  0.23404490  0.88738005    -0.03100
C697        C  0.67039141  0.24409756  0.85703968     0.06800
C698        C  0.69628750  0.28254821  0.84114927    -0.03300
Br699      Br  0.69530204  0.28654455  0.79739170    -0.01800
Br700      Br  0.74711389  0.37719724  0.83654346    -0.01900
Br701      Br  0.65729238  0.17741436  0.90871792    -0.01900
Br702      Br  0.73463000  0.25220740  0.94387487    -0.01900
C703        C  0.53909583  0.16581939  0.66697121    -0.03000
C704        C  0.50329351  0.19735604  0.65448408     0.06700
C705        C  0.46438394  0.21495806  0.67400549    -0.03100
C706        C  0.45817325  0.19693990  0.70407231    -0.03100
C707        C  0.49539318  0.16787053  0.71696730     0.06800
C708        C  0.53446377  0.15012946  0.69775962    -0.03300
Br709      Br  0.57997096  0.10144082  0.71306281    -0.01800
Br710      Br  0.59909987  0.15129647  0.64373293    -0.01900
Br711      Br  0.39715923  0.21149282  0.72660761    -0.01900
Br712      Br  0.42262223  0.26900900  0.66252513    -0.01900
C713        C  0.41555117  0.19036607  0.92486229    -0.03000
C714        C  0.45963263  0.18444093  0.90750713     0.06700
C715        C  0.49721402  0.15480184  0.91958699    -0.03100
C716        C  0.49584006  0.14100530  0.95077757    -0.03100
C717        C  0.45387389  0.15218086  0.96944196     0.06800
C718        C  0.41144187  0.17114132  0.95495509    -0.03300
Br719      Br  0.34634686  0.16718437  0.97393636    -0.01800
Br720      Br  0.36114198  0.22563887  0.90787855    -0.01900
Br721      Br  0.55074431  0.10536453  0.96739813    -0.01900
Br722      Br  0.54703875  0.12824706  0.89228544    -0.01900
C723        C  0.94779276  0.45863235  0.68512814    -0.03000
C724        C  0.92715948  0.49970644  0.70118341     0.06700
C725        C  0.95323737  0.51854669  0.72584157    -0.03100
C726        C  0.99795435  0.49628178  0.73467961    -0.03100
C727        C  0.02107588  0.45795472  0.71697276     0.06800
C728        C  0.99377529  0.43751897  0.69320053    -0.03300
Br729      Br  0.01538890  0.37700409  0.67427700    -0.01800
Br730      Br  0.91286631  0.43125287  0.65141392    -0.01900
Br731      Br  0.02350479  0.51454103  0.77394292    -0.01900
Br732      Br  0.92642467  0.57374291  0.74880639    -0.01900
C733        C  0.65001950  0.33881162  0.70996835    -0.03000
C734        C  0.64079529  0.38976652  0.71283595     0.06700
C735        C  0.60356651  0.40558695  0.73362906    -0.03100
C736        C  0.58238436  0.37242246  0.75537786    -0.03100
C737        C  0.59405383  0.32093457  0.75411868     0.06800
C738        C  0.62523986  0.30433060  0.72942149    -0.03300
Br739      Br  0.63511037  0.23486703  0.72088473    -0.01800
Br740      Br  0.69707590  0.31658498  0.67901690    -0.01900
Br741      Br  0.54107099  0.40098230  0.78773299    -0.01900
Br742      Br  0.58247039  0.47346077  0.73320024    -0.01900
C743        C  0.72956663  0.51832512  0.80900539    -0.03000
C744        C  0.77510377  0.50499257  0.79519760     0.06700
C745        C  0.81560375  0.49497805  0.81326267    -0.03100
C746        C  0.81037474  0.49857776  0.84524832    -0.03100
C747        C  0.76607653  0.51699797  0.85912687     0.06800
C748        C  0.72591867  0.52766148  0.84046659    -0.03300
Br749      Br  0.66438565  0.55152093  0.85829406    -0.01800
Br750      Br  0.67067079  0.51566559  0.78588187    -0.01900
Br751      Br  0.86053239  0.46896288  0.86901982    -0.01900
Br752      Br  0.87587356  0.47012938  0.79416625    -0.01900
C753        C  0.81817164  0.49712002  0.59289846    -0.03000
C754        C  0.79574517  0.45611897  0.60762748     0.06700
C755        C  0.79801601  0.41005133  0.59316414    -0.03100
C756        C  0.81306792  0.40770524  0.56202764    -0.03100
C757        C  0.81964274  0.45241736  0.54481259     0.06800
C758        C  0.82812976  0.49634460  0.56115279    -0.03300
Br759      Br  0.85595356  0.55424368  0.54102453    -0.01800
Br760      Br  0.84089553  0.55079663  0.61741341    -0.01900
Br761      Br  0.82481476  0.34315827  0.54434663    -0.01900
Br762      Br  0.77868831  0.35097613  0.61536686    -0.01900
C763        C  0.55490250  0.62917795  0.75863937    -0.03000
C764        C  0.56914382  0.66341299  0.78064666     0.06700
C765        C  0.61975018  0.67061227  0.78550726    -0.03100
C766        C  0.65556478  0.64326510  0.76868881    -0.03100
C767        C  0.64125450  0.61421761  0.74334586     0.06800
C768        C  0.59010970  0.61038875  0.73755839    -0.03300
Br769      Br  0.56630152  0.58857845  0.69867720    -0.01800
Br770      Br  0.48787781  0.60562727  0.75794874    -0.01900
Br771      Br  0.72312732  0.64656724  0.78181794    -0.01900
Br772      Br  0.63990361  0.71655723  0.81624766    -0.01900
C773        C  0.51517231  0.95986745  0.58481788    -0.03000
C774        C  0.48442782  0.92624748  0.56980241     0.06700
C775        C  0.43621036  0.94389068  0.56145417    -0.03100
C776        C  0.42128596  0.99344303  0.56674693    -0.03100
C777        C  0.45251063  0.02646820  0.58123626     0.06800
C778        C  0.49823615  0.00832464  0.59163890    -0.03300
Br779      Br  0.53769644  0.05026273  0.61624971    -0.01800
Br780      Br  0.58146798  0.94162619  0.59527461    -0.01900
Br781      Br  0.35918565  0.01768365  0.05215160    -0.01900
Br782      Br  0.38929421  0.90372079  0.04043772    -0.01900
C783        C  0.32286885  0.68590196  0.54920565    -0.03000
C784        C  0.36378620  0.65916125  0.56002250     0.06700
C785        C  0.36117795  0.60716570  0.56141958    -0.03100
C786        C  0.32228548  0.58247191  0.54714435    -0.03100
C787        C  0.28742720  0.60973386  0.53030718     0.06800
C788        C  0.28609630  0.66173677  0.53303435    -0.03300
Br789      Br  0.23875943  0.70211571  0.01152473    -0.01800
Br790      Br  0.31732245  0.75688053  0.05582693    -0.01900
Br791      Br  0.31750199  0.51119578  0.55014084    -0.01900
Br792      Br  0.41168669  0.56966584  0.58128475    -0.01900
C793        C  0.61091602  0.59285503  0.97308527    -0.03000
C794        C  0.65127699  0.56799150  0.98614768     0.06700
C795        C  0.65701385  0.57142948  0.51828508    -0.03100
C796        C  0.62764039  0.60433182  0.53580903    -0.03100
C797        C  0.59245495  0.63432072  0.52169757     0.06800
C798        C  0.58092005  0.62496680  0.99113869    -0.03300
Br799      Br  0.52047995  0.65147506  0.97554364    -0.01800
Br800      Br  0.59718107  0.58481432  0.93053026    -0.01900
Br801      Br  0.63148447  0.60406529  0.57976410    -0.01900
Br802      Br  0.70344603  0.52970567  0.53902391    -0.01900
C803        C  0.72711706  0.67556221  0.61159632    -0.03000
C804        C  0.72856409  0.66849507  0.64355758     0.06700
C805        C  0.69807745  0.69947595  0.66203567    -0.03100
C806        C  0.65817591  0.72548669  0.64939117    -0.03100
C807        C  0.65384556  0.72841030  0.61745884     0.06800
C808        C  0.69241105  0.70838363  0.59886660    -0.03300
Br809      Br  0.69578533  0.72275679  0.55565808    -0.01800
Br810      Br  0.76967928  0.63806205  0.58479788    -0.01900
Br811      Br  0.60784811  0.75369414  0.67598079    -0.01900
Br812      Br  0.71099976  0.70691592  0.70456879    -0.01900
C813        C  0.47437944  0.81769464  0.94658807    -0.03000
C814        C  0.51062261  0.79306658  0.96339141     0.06700
C815        C  0.55008458  0.76922393  0.94690426    -0.03100
C816        C  0.54732164  0.76181910  0.91508843    -0.03100
C817        C  0.50891837  0.78315588  0.89876673     0.06800
C818        C  0.47417458  0.81361191  0.91447618    -0.03300
Br819      Br  0.42258531  0.84607328  0.89280102    -0.01800
Br820      Br  0.42584988  0.85897586  0.96712248    -0.01900
Br821      Br  0.59433102  0.71969765  0.89404868    -0.01900
Br822      Br  0.60892831  0.74651319  0.96658550    -0.01900
C823        C  0.47768630  0.82281055  0.66544293    -0.03000
C824        C  0.43933228  0.79581128  0.65227545     0.06700
C825        C  0.39476309  0.78878856  0.66909656    -0.03100
C826        C  0.39169107  0.80208129  0.70033508    -0.03100
C827        C  0.43464786  0.81909814  0.71505857     0.06800
C828        C  0.47563026  0.83417063  0.69670694    -0.03300
Br829      Br  0.52783970  0.87261102  0.71403596    -0.01800
Br830      Br  0.53327228  0.84434084  0.64046039    -0.01900
Br831      Br  0.32872715  0.79573570  0.72199040    -0.01900
Br832      Br  0.33963751  0.75768763  0.65003449    -0.01900
loop_ 
_geom_bond_atom_site_label_1 
_geom_bond_atom_site_label_2 
_geom_bond_distance 
_geom_bond_site_symmetry_2 
_ccdc_geom_bond_type 
O1           C16   1.248       .  A
O1         Al425   1.868       .  S
C2           O12   1.271       .  A
C2            O3   1.287       .  A
C2          C408   1.482       .  S
O3           Al5   1.986       .  S
O4            C6   1.238       .  A
O4           Al5   1.814       .  S
Al5          O13   1.866       .  S
Al5         O431   1.940       .  S
Al5          O14   1.755       .  S
C6           O19   1.283       .  A
C6          C358   1.525       .  S
O7           C17   1.259       .  A
O7           Al9   1.932       .  S
O8           C21   1.276       .  A
O8          Al18   1.894       .  S
Al9          O22   1.987       .  S
Al9          O19   2.016       .  S
Al9         O417   1.869       .  S
Al9          O14   1.774       .  S
O10          C17   1.254       .  A
O10         Al18   1.917       .  S
O11          C20   1.256       .  A
O11         Al18   1.961       .  S
O12         Al18   1.868       .  S
O13          C20   1.241       .  A
O14         Al18   1.791       .  S
O15          C16   1.267       .  A
O15        Al421   1.940       .  S
C16         C398   1.499       .  S
C17         C391   1.496       .  S
C20         C368   1.487       .  S
C21          O22   1.292       .  A
C21         C381   1.484       .  S
O23          C38   1.261       .  A
O23         Al31   1.897       .  S
C24          O34   1.275       .  A
C24          O25   1.272       .  A
C24         C338   1.476       .  S
O25         Al27   1.917       .  S
O26          C28   1.244       .  A
O26         Al27   1.849       .  S
Al27         O35   1.852       .  S
Al27         O37   1.896       .  S
Al27         O36   1.800       .  S
C28          O41   1.272       .  A
C28         C308   1.502       .  S
O29          C39   1.265       .  A
O29         Al31   1.950       .  S
O30          C43   1.268       .  A
O30         Al40   1.898       .  S
Al31         O44   1.920       .  S
Al31         O41   1.973       .  S
Al31         O36   1.803       .  S
O32          C39   1.250       .  A
O32         Al40   1.885       .  S
O33          C42   1.247       .  A
O33         Al40   1.911       .  S
O34         Al40   1.909       .  S
O35          C42   1.237       .  A
O36         Al40   1.791       .  S
O37          C38   1.262       .  A
C38         C328   1.464       .  S
C39         C388   1.503       .  S
C42         C318   1.484       .  S
C43          O44   1.269       .  A
C43         C351   1.501       .  S
O45          C60   1.281       .  A
O45         Al53   1.952       .  S
C46          O56   1.278       .  A
C46          O47   1.272       .  A
C46         C298   1.489       .  S
O47         Al49   1.900       .  S
O48          C50   1.256       .  A
O48         Al49   1.908       .  S
Al49         O57   1.953       .  S
Al49         O59   1.892       .  S
Al49         O58   1.783       .  S
C50          O63   1.271       .  A
C50         C281   1.509       .  S
O51          C61   1.278       .  A
O51         Al53   1.988       .  S
O52          C65   1.260       .  A
O52         Al62   1.912       .  S
Al53         O66   1.862       .  S
Al53         O63   1.966       .  S
Al53         O58   1.791       .  S
O54          C61   1.248       .  A
O54         Al62   1.842       .  S
O55          C64   1.242       .  A
O55         Al62   1.870       .  S
O56         Al62   1.956       .  S
O57          C64   1.257       .  A
O58         Al62   1.774       .  S
O59          C60   1.266       .  A
C60         C321   1.507       .  S
C61         C258   1.503       .  S
C64         C271   1.487       .  S
C65          O66   1.251       .  A
C65         C291   1.486       .  S
O67          C82   1.275       .  A
O67        Al491   1.952       .  S
C68          O78   1.280       .  A
C68          O69   1.260       .  A
C68         C331   1.477       .  S
O69         Al71   1.847       .  S
O70          C72   1.254       .  A
O70         Al71   1.900       .  S
Al71         O79   1.921       .  S
Al71         O81   1.862       .  S
Al71         O80   1.800       .  S
C72          O85   1.262       .  A
C72         C278   1.492       .  S
O73          C83   1.268       .  A
O73         Al75   1.958       .  S
O74          C87   1.269   1_556  A
O74        Al500   1.924       .  S
Al75         O85   1.937       .  S
Al75        O483   1.952       .  S
Al75        O504   1.873       .  S
Al75         O80   1.795       .  S
O76          C83   1.241       .  A
O76         Al84   1.837       .  S
O77          C86   1.243       .  A
O77         Al84   1.873       .  S
O78         Al84   1.963       .  S
O79          C86   1.250       .  A
O80         Al84   1.789       .  S
O81         C498   1.259       .  A
C82         O497   1.259       .  A
C82         C248   1.463       .  S
C83         C238   1.516       .  S
Al84        O490   1.927       .  S
C86         C378   1.496       .  S
C87          O88   1.256   1_554  A
C87         C341   1.497       .  S
O88        Al491   1.875       .  S
O89         C104   1.277       .  A
O89        Al513   1.948       .  S
C90         O100   1.279       .  A
C90          O91   1.280       .  A
C90         C288   1.493       .  S
O91         Al93   1.911       .  S
O92          C94   1.241       .  A
O92         Al93   1.850       .  S
Al93        O101   1.884       .  S
Al93        O519   1.918       .  S
Al93        O102   1.775       .  S
C94         O107   1.271       .  A
C94         C361   1.499       .  S
O95         C105   1.273       .  A
O95         Al97   1.975       .  S
O96         C109   1.260       .  A
O96        Al106   1.878       .  S
Al97        O110   1.901       .  S
Al97        O107   1.980       .  S
Al97        O505   1.947       .  S
Al97        O102   1.784       .  S
O98         C105   1.251       .  A
O98        Al106   1.864       .  S
O99         C108   1.239       .  A
O99        Al106   1.873       .  S
O100       Al106   1.939       .  S
O101        C108   1.239       .  A
O102       Al106   1.766       .  S
O103        C104   1.281       .  A
O103       Al509   1.917       .  S
C104        C301   1.501       .  S
C105        C231   1.516       .  S
C108        C251   1.458       .  S
C109        O110   1.262       .  A
C109        C218   1.481       .  S
O111        C126   1.280       .  A
O111       Al119   1.933       .  S
C112        O122   1.284       .  A
C112        O113   1.275       .  A
C112        C211   1.471       .  S
O113       Al115   1.892       .  S
O114        C116   1.238       .  A
O114       Al115   1.842       .  S
Al115       O123   1.894       .  S
Al115       O125   1.896       .  S
Al115       O124   1.773       .  S
C116        O129   1.275       .  A
C116        C311   1.520       .  S
O117        C127   1.270       .  A
O117       Al119   1.958       .  S
O118        C131   1.262       .  A
O118       Al128   1.886       .  S
Al119       O132   1.945       .  S
Al119       O129   2.014       .  S
Al119       O124   1.783       .  S
O120        C127   1.254       .  A
O120       Al128   1.865       .  S
O121        C130   1.246       .  A
O121       Al128   1.905       .  S
O122       Al128   1.950       .  S
O123        C130   1.241       .  A
O124       Al128   1.758       .  S
O125        C126   1.276       .  A
C126        C198   1.479       .  S
C127        C228   1.505       .  S
C130        C191   1.481       .  S
C131        O132   1.270       .  A
C131        C268   1.496       .  S
O133        C148   1.271       .  A
O133       Al557   1.927   1_554  S
C134        O144   1.280       .  A
C134        O135   1.285       .  A
C134        C201   1.498       .  S
O135       Al137   1.938       .  S
O136        C138   1.253       .  A
O136       Al137   1.872       .  S
Al137       O145   1.897       .  S
Al137       O147   1.874       .  S
Al137       O146   1.751       .  S
C138        O151   1.264       .  A
C138        C178   1.505       .  S
O139        C149   1.277       .  A
O139       Al141   2.014       .  S
O140        C153   1.287       .  A
O140       Al566   1.926   1_554  S
Al141       O151   1.942       .  S
Al141       O549   1.926       .  S
Al141       O570   1.942       .  S
Al141       O146   1.768       .  S
O142        C149   1.238       .  A
O142       Al150   1.871       .  S
O143        C152   1.238       .  A
O143       Al150   1.877       .  S
O144       Al150   1.914       .  S
O145        C152   1.243       .  A
O146       Al150   1.751       .  S
O147        C564   1.262       .  A
C148        O563   1.262   1_554  A
C148        C371   1.485       .  S
C149        C241   1.520       .  S
Al150       O556   1.925       .  S
C152        C221   1.479       .  S
C153        O154   1.277       .  A
C153        C208   1.492       .  S
O154       Al557   1.943   1_554  S
O155        C170   1.274       .  A
O155       Al163   1.936       .  S
C156        O166   1.279       .  A
C156        O157   1.273       .  A
C156        C401   1.486       .  S
O157       Al159   1.906       .  S
O158        C160   1.249       .  A
O158       Al159   1.866       .  S
Al159       O167   1.887       .  S
Al159       O169   1.894       .  S
Al159       O168   1.786       .  S
C160        O173   1.262       .  A
C160        C181   1.494       .  S
O161        C171   1.266       .  A
O161       Al163   1.958       .  S
O162        C175   1.275       .  A
O162       Al172   1.918       .  S
Al163       O176   1.912       .  S
Al163       O173   1.950       .  S
Al163       O168   1.799       .  S
O164        C171   1.239       .  A
O164       Al172   1.838       .  S
O165        C174   1.240       .  A
O165       Al172   1.871       .  S
O166       Al172   1.940       .  S
O167        C174   1.241       .  A
O168       Al172   1.782       .  S
O169        C170   1.266       .  A
C170        C188   1.476       .  S
C171        C261   1.491       .  S
C174        C348   1.480       .  S
C175        O176   1.265       .  A
C175        C411   1.494       .  S
C177        C178   1.417       .  A
C177        C182   1.426       .  A
C177       Br184   1.923       .  S
C178        C179   1.423       .  A
C179        C180   1.399       .  A
C179       Br186   1.934       .  S
C180        C181   1.405       .  A
C180       Br185   1.925       .  S
C181        C182   1.411       .  A
C182       Br183   1.925       .  S
C187        C188   1.410       .  A
C187        C192   1.412       .  A
C187       Br194   1.925       .  S
C188        C189   1.402       .  A
C189        C190   1.398       .  A
C189       Br196   1.916       .  S
C190        C191   1.413       .  A
C190       Br195   1.931       .  S
C191        C192   1.413       .  A
C192       Br193   1.929       .  S
C197        C198   1.411       .  A
C197        C202   1.406       .  A
C197       Br204   1.934       .  S
C198        C199   1.409       .  A
C199        C200   1.406       .  A
C199       Br206   1.934       .  S
C200        C201   1.418       .  A
C200       Br205   1.925       .  S
C201        C202   1.424       .  A
C202       Br203   1.937       .  S
C207        C208   1.426       .  A
C207        C212   1.408       .  A
C207       Br214   1.924       .  S
C208        C209   1.408       .  A
C209        C210   1.407       .  A
C209       Br216   1.929       .  S
C210        C211   1.408       .  A
C210       Br215   1.919       .  S
C211        C212   1.398       .  A
C212       Br213   1.933       .  S
C217        C218   1.415       .  A
C217        C222   1.405       .  A
C217       Br224   1.938       .  S
C218        C635   1.412   1_554  A
C219        C220   1.404       .  A
C219        C634   1.411       .  A
C219       Br226   1.927       .  S
C220        C221   1.412       .  A
C220       Br225   1.935       .  S
C221        C638   1.416       .  A
C222        C637   1.416   1_554  A
C222       Br223   1.936       .  S
C227        C228   1.420       .  A
C227        C232   1.431       .  A
C227       Br234   1.926       .  S
C228        C229   1.408       .  A
C229        C230   1.405       .  A
C229       Br236   1.937       .  S
C230        C231   1.426       .  A
C230       Br235   1.929       .  S
C231        C232   1.416       .  A
C232       Br233   1.924       .  S
C237        C238   1.406       .  A
C237        C242   1.414   1_655  A
C237       Br244   1.941       .  S
C238        C239   1.434       .  A
C239        C240   1.420   1_655  A
C239       Br246   1.938       .  S
C240        C241   1.410       .  A
C240       Br245   1.933       .  S
C241        C242   1.440       .  A
C242       Br243   1.938       .  S
C247        C664   1.408       .  A
C247        C668   1.396       .  A
C247       Br254   1.930       .  S
C248        C249   1.406   1_556  A
C248        C663   1.408       .  A
C249        C250   1.405       .  A
C249       Br256   1.912       .  S
C250        C251   1.404       .  A
C250       Br255   1.929       .  S
C251        C252   1.404   1_554  A
C252        C663   1.396       .  A
C252       Br669   1.920       .  S
Br253       C668   1.920       .  S
C257        C258   1.427       .  A
C257        C262   1.409   1_545  A
C257       Br264   1.928       .  S
C258        C259   1.406       .  A
C259        C260   1.419   1_545  A
C259       Br266   1.925       .  S
C260        C261   1.424       .  A
C260       Br265   1.927       .  S
C261        C262   1.401       .  A
C262       Br263   1.936       .  S
C267        C268   1.416       .  A
C267        C272   1.416       .  A
C267       Br274   1.922       .  S
C268        C269   1.416       .  A
C269        C270   1.408       .  A
C269       Br276   1.934       .  S
C270        C271   1.409       .  A
C270       Br275   1.928       .  S
C271        C272   1.408       .  A
C272       Br273   1.921       .  S
C277        C278   1.404       .  A
C277        C282   1.411       .  A
C277       Br284   1.927       .  S
C278        C279   1.414       .  A
C279        C280   1.421       .  A
C279       Br286   1.927       .  S
C280        C281   1.412       .  A
C280       Br285   1.913       .  S
C281        C282   1.417       .  A
C282       Br283   1.917       .  S
C287        C288   1.411       .  A
C287        C292   1.410       .  A
C287       Br294   1.930       .  S
C288        C289   1.418       .  A
C289        C290   1.403       .  A
C289       Br296   1.921       .  S
C290        C291   1.407       .  A
C290       Br295   1.937       .  S
C291        C292   1.416       .  A
C292       Br293   1.933       .  S
C297        C298   1.403       .  A
C297        C302   1.412       .  A
C297       Br304   1.921       .  S
C298        C299   1.408       .  A
C299        C300   1.411       .  A
C299       Br306   1.916       .  S
C300        C301   1.412       .  A
C300       Br305   1.930       .  S
C301        C302   1.423       .  A
C302       Br303   1.925       .  S
C307        C308   1.423       .  A
C307        C312   1.423       .  A
C307       Br314   1.929       .  S
C308        C309   1.406       .  A
C309        C310   1.415       .  A
C309       Br316   1.933       .  S
C310        C311   1.431   1_655  A
C310       Br315   1.940   1_655  S
C311        C312   1.411   1_455  A
C312       Br313   1.923   1_655  S
C317        C318   1.405       .  A
C317        C322   1.411       .  A
C317       Br324   1.928       .  S
C318        C319   1.404       .  A
C319        C320   1.409       .  A
C319       Br326   1.922       .  S
C320        C321   1.428       .  A
C320       Br325   1.940       .  S
C321        C322   1.424       .  A
C322       Br323   1.933       .  S
C327        C328   1.404       .  A
C327        C332   1.402       .  A
C327       Br334   1.917       .  S
C328        C329   1.397       .  A
C329        C330   1.406       .  A
C329       Br336   1.932       .  S
C330        C331   1.419       .  A
C330       Br335   1.908       .  S
C331        C332   1.409       .  A
C332       Br333   1.930       .  S
C337        C338   1.404       .  A
C337        C342   1.406       .  A
C337       Br344   1.923       .  S
C338        C339   1.402       .  A
C339        C340   1.411       .  A
C339       Br346   1.924       .  S
C340        C341   1.426       .  A
C340       Br345   1.936       .  S
C341        C342   1.412       .  A
C342       Br343   1.929       .  S
C347        C348   1.403       .  A
C347        C352   1.402       .  A
C347       Br354   1.923       .  S
C348        C349   1.407       .  A
C349        C350   1.411       .  A
C349       Br356   1.928       .  S
C350        C351   1.427       .  A
C350       Br355   1.937       .  S
C351        C352   1.419       .  A
C352       Br353   1.935       .  S
C357        C358   1.412       .  A
C357        C362   1.418   1_565  A
C357       Br364   1.929       .  S
C358        C359   1.447       .  A
C359        C360   1.418       .  A
C359       Br782   1.939       .  S
C360        C361   1.398   1_565  A
C360       Br781   1.937   1_565  S
C361        C362   1.419       .  A
C362       Br363   1.917       .  S
Br365       C776   1.938   1_545  S
Br366       C775   1.939       .  S
C367        C368   1.416       .  A
C367        C372   1.404       .  A
C367       Br790   1.931       .  S
C368        C369   1.407       .  A
C369        C370   1.412       .  A
C369       Br376   1.927       .  S
C370        C371   1.418       .  A
C370       Br375   1.933       .  S
C371        C372   1.411       .  A
C372       Br789   1.936       .  S
Br373       C788   1.935       .  S
Br374       C783   1.931       .  S
C377        C378   1.417       .  A
C377        C382   1.416       .  A
C377       Br384   1.924       .  S
C378        C795   1.418       .  A
C379        C380   1.407       .  A
C379        C794   1.418   1_554  A
C379       Br386   1.932       .  S
C380        C381   1.405       .  A
C380       Br385   1.929       .  S
C381        C798   1.408   1_554  A
C382        C797   1.408       .  A
C382       Br383   1.929       .  S
C387        C388   1.411       .  A
C387        C392   1.417       .  A
C387       Br394   1.914       .  S
C388        C389   1.415       .  A
C389        C390   1.414       .  A
C389       Br396   1.917       .  S
C390        C391   1.407       .  A
C390       Br395   1.924       .  S
C391        C392   1.413       .  A
C392       Br393   1.925       .  S
C397        C398   1.409       .  A
C397        C402   1.410       .  A
C397       Br404   1.929       .  S
C398        C399   1.426       .  A
C399        C400   1.411       .  A
C399       Br406   1.933       .  S
C400        C401   1.401       .  A
C400       Br405   1.924       .  S
C401        C402   1.415       .  A
C402       Br403   1.921       .  S
C407        C408   1.410       .  A
C407        C412   1.403       .  A
C407       Br414   1.917       .  S
C408        C409   1.404       .  A
C409        C410   1.416       .  A
C409       Br416   1.928       .  S
C410        C411   1.425       .  A
C410       Br415   1.930       .  S
C411        C412   1.406       .  A
C412       Br413   1.932       .  S
O417        C432   1.248   1_554  A
C418        O428   1.271       .  A
C418        O419   1.287       .  A
C418        C824   1.481       .  S
O419       Al421   1.985       .  S
O420        C422   1.238       .  A
O420       Al421   1.815       .  S
Al421       O429   1.865       .  S
Al421       O430   1.756       .  S
C422        O435   1.283       .  A
C422        C774   1.524       .  S
O423        C433   1.259       .  A
O423       Al425   1.931       .  S
O424        C437   1.276       .  A
O424       Al434   1.894       .  S
Al425       O438   1.988       .  S
Al425       O435   2.015       .  S
Al425       O430   1.774       .  S
O426        C433   1.254       .  A
O426       Al434   1.916       .  S
O427        C436   1.256       .  A
O427       Al434   1.960       .  S
O428       Al434   1.867       .  S
O429        C436   1.242       .  A
O430       Al434   1.791       .  S
O431        C432   1.267   1_554  A
C432        C814   1.499       .  S
C433        C807   1.495       .  S
C436        C784   1.486       .  S
C437        O438   1.292       .  A
C437        C797   1.485       .  S
O439        C454   1.260       .  A
O439       Al447   1.894       .  S
C440        O450   1.275       .  A
C440        O441   1.273       .  A
C440        C754   1.476       .  S
O441       Al443   1.919       .  S
O442        C444   1.244       .  A
O442       Al443   1.846       .  S
Al443       O451   1.852       .  S
Al443       O453   1.895       .  S
Al443       O452   1.800       .  S
C444        O457   1.272       .  A
C444        C724   1.502       .  S
O445        C455   1.265       .  A
O445       Al447   1.952       .  S
O446        C459   1.268       .  A
O446       Al456   1.898       .  S
Al447       O460   1.921       .  S
Al447       O457   1.974       .  S
Al447       O452   1.803       .  S
O448        C455   1.250       .  A
O448       Al456   1.885       .  S
O449        C458   1.247       .  A
O449       Al456   1.912       .  S
O450       Al456   1.907       .  S
O451        C458   1.237       .  A
O452       Al456   1.792       .  S
O453        C454   1.262       .  A
C454        C744   1.463       .  S
C455        C804   1.503       .  S
C458        C734   1.484       .  S
C459        O460   1.269       .  A
C459        C767   1.501       .  S
O461        C476   1.280       .  A
O461       Al469   1.951       .  S
C462        O472   1.278       .  A
C462        O463   1.272       .  A
C462        C714   1.489       .  S
O463       Al465   1.899       .  S
O464        C466   1.256       .  A
O464       Al465   1.908       .  S
Al465       O473   1.953       .  S
Al465       O475   1.891       .  S
Al465       O474   1.783       .  S
C466        O479   1.271       .  A
C466        C697   1.509       .  S
O467        C477   1.279       .  A
O467       Al469   1.988       .  S
O468        C481   1.260       .  A
O468       Al478   1.911       .  S
Al469       O482   1.862       .  S
Al469       O479   1.967       .  S
Al469       O474   1.791       .  S
O470        C477   1.248       .  A
O470       Al478   1.842       .  S
O471        C480   1.242       .  A
O471       Al478   1.870       .  S
O472       Al478   1.956       .  S
O473        C480   1.257       .  A
O474       Al478   1.774       .  S
O475        C476   1.266       .  A
C476        C737   1.507       .  S
C477        C674   1.502       .  S
C480        C687   1.487       .  S
C481        O482   1.251       .  A
C481        C707   1.485       .  S
O483        C498   1.275       .  A
C484        O494   1.280       .  A
C484        O485   1.260       .  A
C484        C747   1.476       .  S
O485       Al487   1.847       .  S
O486        C488   1.253       .  A
O486       Al487   1.900       .  S
Al487       O495   1.919       .  S
Al487       O497   1.861       .  S
Al487       O496   1.800       .  S
C488        O501   1.262       .  A
C488        C694   1.493       .  S
O489        C499   1.268       .  A
O489       Al491   1.957       .  S
O490        C503   1.269       .  A
Al491       O501   1.936       .  S
Al491       O496   1.795       .  S
O492        C499   1.240       .  A
O492       Al500   1.836       .  S
O493        C502   1.243       .  A
O493       Al500   1.871       .  S
O494       Al500   1.962       .  S
O495        C502   1.249       .  A
O496       Al500   1.789       .  S
C498        C664   1.463       .  S
C499        C654   1.515       .  S
C502        C794   1.496       .  S
C503        O504   1.256       .  A
C503        C757   1.498       .  S
O505        C520   1.277       .  A
C506        O516   1.280       .  A
C506        O507   1.280       .  A
C506        C704   1.494       .  S
O507       Al509   1.911       .  S
O508        C510   1.241       .  A
O508       Al509   1.849       .  S
Al509       O517   1.883       .  S
Al509       O518   1.774       .  S
C510        O523   1.271       .  A
C510        C777   1.499       .  S
O511        C521   1.273       .  A
O511       Al513   1.975       .  S
O512        C525   1.261       .  A
O512       Al522   1.880       .  S
Al513       O526   1.900       .  S
Al513       O523   1.980       .  S
Al513       O518   1.784       .  S
O514        C521   1.250       .  A
O514       Al522   1.862       .  S
O515        C524   1.239       .  A
O515       Al522   1.873       .  S
O516       Al522   1.940       .  S
O517        C524   1.239       .  A
O518       Al522   1.766       .  S
O519        C520   1.281       .  A
C520        C717   1.501   1_554  S
C521        C647   1.516       .  S
C524        C667   1.458       .  S
C525        O526   1.261       .  A
C525        C634   1.480       .  S
O527        C542   1.280       .  A
O527       Al535   1.933       .  S
C528        O538   1.284       .  A
C528        O529   1.275       .  A
C528        C627   1.469       .  S
O529       Al531   1.891       .  S
O530        C532   1.239       .  A
O530       Al531   1.844       .  S
Al531       O539   1.895       .  S
Al531       O541   1.897       .  S
Al531       O540   1.773       .  S
C532        O545   1.274       .  A
C532        C727   1.520       .  S
O533        C543   1.270       .  A
O533       Al535   1.957       .  S
O534        C547   1.262       .  A
O534       Al544   1.887       .  S
Al535       O548   1.945       .  S
Al535       O545   2.015       .  S
Al535       O540   1.782       .  S
O536        C543   1.254       .  A
O536       Al544   1.867       .  S
O537        C546   1.246       .  A
O537       Al544   1.906       .  S
O538       Al544   1.949       .  S
O539        C546   1.241       .  A
O540       Al544   1.759       .  S
O541        C542   1.276       .  A
C542        C614   1.480       .  S
C543        C644   1.504       .  S
C546        C607   1.483       .  S
C547        O548   1.271       .  A
C547        C684   1.497       .  S
O549        C564   1.271       .  A
C550        O560   1.282       .  A
C550        O551   1.284       .  A
C550        C617   1.495       .  S
O551       Al553   1.938       .  S
O552        C554   1.252       .  A
O552       Al553   1.870       .  S
Al553       O561   1.898       .  S
Al553       O563   1.873       .  S
Al553       O562   1.752       .  S
C554        O567   1.264       .  A
C554        C594   1.503       .  S
O555        C565   1.277       .  A
O555       Al557   2.013       .  S
O556        C569   1.287       .  A
Al557       O567   1.940       .  S
Al557       O562   1.769       .  S
O558        C565   1.239       .  A
O558       Al566   1.872       .  S
O559        C568   1.237       .  A
O559       Al566   1.876       .  S
O560       Al566   1.915       .  S
O561        C568   1.243       .  A
O562       Al566   1.751       .  S
C564        C787   1.485       .  S
C565        C657   1.519       .  S
C568        C637   1.480       .  S
C569        O570   1.277       .  A
C569        C624   1.491       .  S
O571        C586   1.273       .  A
O571       Al579   1.935       .  S
C572        O582   1.278       .  A
C572        O573   1.273       .  A
C572        C817   1.487       .  S
O573       Al575   1.908       .  S
O574        C576   1.249       .  A
O574       Al575   1.866       .  S
Al575       O583   1.886       .  S
Al575       O585   1.895       .  S
Al575       O584   1.787       .  S
C576        O589   1.261       .  A
C576        C597   1.493       .  S
O577        C587   1.266       .  A
O577       Al579   1.956       .  S
O578        C591   1.274       .  A
O578       Al588   1.918       .  S
Al579       O592   1.911       .  S
Al579       O589   1.947       .  S
Al579       O584   1.800       .  S
O580        C587   1.239       .  A
O580       Al588   1.839       .  S
O581        C590   1.240       .  A
O581       Al588   1.870       .  S
O582       Al588   1.939       .  S
O583        C590   1.241       .  A
O584       Al588   1.783       .  S
O585        C586   1.265       .  A
C586        C604   1.477       .  S
C587        C677   1.490       .  S
C590        C764   1.480       .  S
C591        O592   1.264       .  A
C591        C827   1.494       .  S
C593        C594   1.417       .  A
C593        C598   1.425       .  A
C593       Br600   1.923       .  S
C594        C595   1.422       .  A
C595        C596   1.399       .  A
C595       Br602   1.934       .  S
C596        C597   1.405       .  A
C596       Br601   1.925       .  S
C597        C598   1.411       .  A
C598       Br599   1.925       .  S
C603        C604   1.410       .  A
C603        C608   1.413       .  A
C603       Br610   1.925       .  S
C604        C605   1.402       .  A
C605        C606   1.399       .  A
C605       Br612   1.915       .  S
C606        C607   1.414       .  A
C606       Br611   1.932       .  S
C607        C608   1.413       .  A
C608       Br609   1.929       .  S
C613        C614   1.412       .  A
C613        C618   1.406       .  A
C613       Br620   1.933       .  S
C614        C615   1.410       .  A
C615        C616   1.406       .  A
C615       Br622   1.933       .  S
C616        C617   1.415       .  A
C616       Br621   1.924       .  S
C617        C618   1.422       .  A
C618       Br619   1.935       .  S
C623        C624   1.426       .  A
C623        C628   1.408       .  A
C623       Br630   1.924       .  S
C624        C625   1.408       .  A
C625        C626   1.406       .  A
C625       Br632   1.929       .  S
C626        C627   1.407       .  A
C626       Br631   1.919       .  S
C627        C628   1.398       .  A
C628       Br629   1.933       .  S
C633        C634   1.415       .  A
C633        C638   1.405       .  A
C633       Br640   1.938       .  S
C635        C636   1.405       .  A
C635       Br642   1.928       .  S
C636        C637   1.412       .  A
C636       Br641   1.935       .  S
C638       Br639   1.936       .  S
C643        C644   1.420       .  A
C643        C648   1.431       .  A
C643       Br650   1.926       .  S
C644        C645   1.408       .  A
C645        C646   1.404       .  A
C645       Br652   1.937       .  S
C646        C647   1.426       .  A
C646       Br651   1.930       .  S
C647        C648   1.416       .  A
C648       Br649   1.924       .  S
C653        C654   1.408       .  A
C653        C658   1.414   1_655  A
C653       Br660   1.942       .  S
C654        C655   1.434       .  A
C655        C656   1.420   1_655  A
C655       Br662   1.938       .  S
C656        C657   1.409       .  A
C656       Br661   1.933       .  S
C657        C658   1.438       .  A
C658       Br659   1.936       .  S
C663       Br670   1.930       .  S
C664        C665   1.406       .  A
C665        C666   1.405       .  A
C665       Br672   1.912       .  S
C666        C667   1.404       .  A
C666       Br671   1.929       .  S
C667        C668   1.404       .  A
C673        C674   1.427       .  A
C673        C678   1.409   1_545  A
C673       Br680   1.928       .  S
C674        C675   1.406       .  A
C675        C676   1.418   1_545  A
C675       Br682   1.924       .  S
C676        C677   1.424       .  A
C676       Br681   1.927       .  S
C677        C678   1.401       .  A
C678       Br679   1.936       .  S
C683        C684   1.416       .  A
C683        C688   1.415       .  A
C683       Br690   1.921       .  S
C684        C685   1.416       .  A
C685        C686   1.408       .  A
C685       Br692   1.934       .  S
C686        C687   1.410       .  A
C686       Br691   1.929       .  S
C687        C688   1.407       .  A
C688       Br689   1.921       .  S
C693        C694   1.404       .  A
C693        C698   1.412       .  A
C693       Br700   1.927       .  S
C694        C695   1.414       .  A
C695        C696   1.421       .  A
C695       Br702   1.927       .  S
C696        C697   1.412       .  A
C696       Br701   1.913       .  S
C697        C698   1.417       .  A
C698       Br699   1.917       .  S
C703        C704   1.411       .  A
C703        C708   1.410       .  A
C703       Br710   1.930       .  S
C704        C705   1.419       .  A
C705        C706   1.403       .  A
C705       Br712   1.921       .  S
C706        C707   1.407       .  A
C706       Br711   1.938       .  S
C707        C708   1.415       .  A
C708       Br709   1.933       .  S
C713        C714   1.403       .  A
C713        C718   1.412       .  A
C713       Br720   1.921       .  S
C714        C715   1.409       .  A
C715        C716   1.411       .  A
C715       Br722   1.916       .  S
C716        C717   1.411       .  A
C716       Br721   1.930       .  S
C717        C718   1.423       .  A
C718       Br719   1.926       .  S
C723        C724   1.423       .  A
C723        C728   1.423       .  A
C723       Br730   1.930       .  S
C724        C725   1.407       .  A
C725        C726   1.416       .  A
C725       Br732   1.933       .  S
C726        C727   1.430   1_655  A
C726       Br731   1.940   1_655  S
C727        C728   1.411   1_455  A
C728       Br729   1.921   1_655  S
C733        C734   1.405       .  A
C733        C738   1.411       .  A
C733       Br740   1.928       .  S
C734        C735   1.404       .  A
C735        C736   1.409       .  A
C735       Br742   1.921       .  S
C736        C737   1.428       .  A
C736       Br741   1.940       .  S
C737        C738   1.425       .  A
C738       Br739   1.933       .  S
C743        C744   1.403       .  A
C743        C748   1.401       .  A
C743       Br750   1.917       .  S
C744        C745   1.397       .  A
C745        C746   1.406       .  A
C745       Br752   1.932       .  S
C746        C747   1.418       .  A
C746       Br751   1.909       .  S
C747        C748   1.409       .  A
C748       Br749   1.929       .  S
C753        C754   1.404       .  A
C753        C758   1.406       .  A
C753       Br760   1.923       .  S
C754        C755   1.401       .  A
C755        C756   1.411       .  A
C755       Br762   1.924       .  S
C756        C757   1.426       .  A
C756       Br761   1.936       .  S
C757        C758   1.413       .  A
C758       Br759   1.929       .  S
C763        C764   1.403       .  A
C763        C768   1.402       .  A
C763       Br770   1.923       .  S
C764        C765   1.407       .  A
C765        C766   1.411       .  A
C765       Br772   1.929       .  S
C766        C767   1.427       .  A
C766       Br771   1.937       .  S
C767        C768   1.419       .  A
C768       Br769   1.935       .  S
C773        C774   1.412       .  A
C773        C778   1.418   1_565  A
C773       Br780   1.930       .  S
C774        C775   1.447       .  A
C775        C776   1.417       .  A
C776        C777   1.398   1_565  A
C777        C778   1.419       .  A
C778       Br779   1.918       .  S
C783        C784   1.415       .  A
C783        C788   1.404       .  A
C784        C785   1.407       .  A
C785        C786   1.411       .  A
C785       Br792   1.927       .  S
C786        C787   1.419       .  A
C786       Br791   1.933       .  S
C787        C788   1.411       .  A
C793        C794   1.416       .  A
C793        C798   1.416       .  A
C793       Br800   1.924       .  S
C795        C796   1.408       .  A
C795       Br802   1.932       .  S
C796        C797   1.405       .  A
C796       Br801   1.929       .  S
C798       Br799   1.929       .  S
C803        C804   1.411       .  A
C803        C808   1.416       .  A
C803       Br810   1.913       .  S
C804        C805   1.415       .  A
C805        C806   1.414       .  A
C805       Br812   1.916       .  S
C806        C807   1.407       .  A
C806       Br811   1.924       .  S
C807        C808   1.413       .  A
C808       Br809   1.925       .  S
C813        C814   1.409       .  A
C813        C818   1.410       .  A
C813       Br820   1.928       .  S
C814        C815   1.426       .  A
C815        C816   1.412       .  A
C815       Br822   1.933       .  S
C816        C817   1.402       .  A
C816       Br821   1.924       .  S
C817        C818   1.415       .  A
C818       Br819   1.921       .  S
C823        C824   1.409       .  A
C823        C828   1.403       .  A
C823       Br830   1.918       .  S
C824        C825   1.404       .  A
C825        C826   1.415       .  A
C825       Br832   1.928       .  S
C826        C827   1.425       .  A
C826       Br831   1.929       .  S
C827        C828   1.406       .  A
C828       Br829   1.932       .  S
